<net xmlns:xsi="http://www.w3.org/2001/XMLSchema-instance" version="1.3" junctionCornerDetail="5" junctionLinkDetail="20" limitTurnSpeed="5.50" xsi:noNamespaceSchemaLocation="http://sumo.dlr.de/xsd/net_file.xsd">

    <location netOffset="0.00,0.00" convBoundary="-215.92,-183.13,215.43,180.46" origBoundary="-215.92,-183.13,215.43,180.46" projParameter="!"/>

    <type id="highway.bridleway" priority="1" speed="2.78" allow="pedestrian" oneway="1"/>
    <type id="highway.bus_guideway" priority="1" speed="27.78" allow="bus" oneway="1"/>
    <type id="highway.cycleway" priority="1" speed="8.33" allow="bicycle"/>
    <type id="highway.footway" priority="1" speed="2.78" allow="pedestrian" oneway="1"/>
    <type id="highway.ford" priority="1" speed="2.78" allow="army"/>
    <type id="highway.living_street" priority="2" speed="2.78" disallow="tram rail_urban rail rail_electric ship"/>
    <type id="highway.motorway" priority="14" speed="39.44" disallow="pedestrian moped bicycle tram rail_urban rail rail_electric ship" oneway="1"/>
    <type id="highway.motorway_link" priority="9" speed="22.22" disallow="pedestrian moped bicycle tram rail_urban rail rail_electric ship" oneway="1"/>
    <type id="highway.path" priority="1" speed="2.78" allow="pedestrian bicycle"/>
    <type id="highway.pedestrian" priority="1" speed="2.78" allow="pedestrian" oneway="1"/>
    <type id="highway.primary" priority="12" speed="27.78" disallow="pedestrian tram rail_urban rail rail_electric ship"/>
    <type id="highway.primary_link" priority="7" speed="22.22" disallow="pedestrian tram rail_urban rail rail_electric ship"/>
    <type id="highway.raceway" priority="15" speed="83.33" allow="vip"/>
    <type id="highway.residential" priority="3" speed="13.89" disallow="pedestrian tram rail_urban rail rail_electric ship"/>
    <type id="highway.residential_speed_13.89" priority="3" speed="13.89" disallow="pedestrian tram rail_urban rail rail_electric ship"/>
    <type id="highway.secondary" priority="11" speed="27.78" disallow="pedestrian tram rail_urban rail rail_electric ship"/>
    <type id="highway.secondary_link" priority="6" speed="22.22" disallow="pedestrian tram rail_urban rail rail_electric ship"/>
    <type id="highway.service" priority="1" speed="5.56" allow="pedestrian delivery bicycle"/>
    <type id="highway.stairs" priority="1" speed="1.39" allow="pedestrian" oneway="1"/>
    <type id="highway.step" priority="1" speed="1.39" allow="pedestrian" oneway="1"/>
    <type id="highway.steps" priority="1" speed="1.39" allow="pedestrian" oneway="1"/>
    <type id="highway.tertiary" priority="10" speed="22.22" disallow="pedestrian tram rail_urban rail rail_electric ship"/>
    <type id="highway.tertiary_link" priority="5" speed="22.22" disallow="pedestrian tram rail_urban rail rail_electric ship"/>
    <type id="highway.track" priority="1" speed="5.56" allow="pedestrian motorcycle moped bicycle"/>
    <type id="highway.trunk" priority="13" speed="27.78" disallow="pedestrian bicycle tram rail_urban rail rail_electric ship"/>
    <type id="highway.trunk_link" priority="8" speed="22.22" disallow="pedestrian bicycle tram rail_urban rail rail_electric ship"/>
    <type id="highway.unclassified" priority="4" speed="13.89" disallow="tram rail_urban rail rail_electric ship"/>
    <type id="highway.unsurfaced" priority="1" speed="8.33" disallow="tram rail_urban rail rail_electric ship"/>
    <type id="railway.highspeed" priority="21" speed="69.44" allow="rail" oneway="1"/>
    <type id="railway.light_rail" priority="19" speed="27.78" allow="rail_urban" oneway="1"/>
    <type id="railway.preserved" priority="16" speed="27.78" allow="rail" oneway="1"/>
    <type id="railway.rail" priority="20" speed="44.44" allow="rail" oneway="1"/>
    <type id="railway.subway" priority="18" speed="27.78" allow="rail_urban" oneway="1"/>
    <type id="railway.tram" priority="17" speed="13.89" allow="tram" oneway="1"/>

    <edge id=":1_0" function="internal">
        <lane id=":1_0_0" index="0" disallow="pedestrian tram rail_urban rail rail_electric ship" speed="36.11" length="2.99" width="3.51" shape="176.07,-159.94 176.03,-162.93"/>
    </edge>
    <edge id=":27_0" function="internal">
        <lane id=":27_0_0" index="0" disallow="pedestrian tram rail_urban rail rail_electric ship" speed="6.97" length="10.67" width="3.50" shape="175.91,-172.04 175.89,-172.72 175.87,-172.93 175.84,-173.14 175.82,-173.34 175.79,-173.55 175.75,-173.76 175.71,-173.96 175.65,-174.16 175.58,-174.36 175.50,-174.55 175.42,-174.74 175.33,-174.93 175.23,-175.11 175.11,-175.28 174.98,-175.45 174.85,-175.61 174.72,-175.77 174.57,-175.91 174.41,-176.05 174.25,-176.18 174.09,-176.31 173.92,-176.43 173.74,-176.54 173.56,-176.64 173.38,-176.73 173.19,-176.82 173.00,-176.91 172.81,-176.98 172.61,-177.04 172.41,-177.11 172.21,-177.17 172.01,-177.22 171.81,-177.26 171.60,-177.30 171.40,-177.34 171.19,-177.37 170.99,-177.41 170.78,-177.43 170.58,-177.45 170.37,-177.47 170.16,-177.48 169.96,-177.50 169.75,-177.51 169.54,-177.51 169.33,-177.51 169.12,-177.51 168.92,-177.51 168.71,-177.50 168.50,-177.50"/>
    </edge>
    <edge id=":27_1" function="internal">
        <lane id=":27_1_0" index="0" disallow="pedestrian tram rail_urban rail rail_electric ship" speed="8.49" length="15.66" width="3.50" shape="175.91,-172.04 175.92,-172.83 175.93,-173.14 175.95,-173.45 175.97,-173.76 175.99,-174.07 176.01,-174.38 176.04,-174.68 176.10,-174.99 176.16,-175.29 176.23,-175.59 176.30,-175.90 176.38,-176.19 176.49,-176.48 176.61,-176.77 176.72,-177.06 176.85,-177.34 176.99,-177.62 177.16,-177.88 177.33,-178.13 177.50,-178.39 177.69,-178.64 177.89,-178.87 178.11,-179.09 178.33,-179.31 178.57,-179.51 178.80,-179.71 179.05,-179.90 179.31,-180.07 179.57,-180.23 179.84,-180.38 180.11,-180.53 180.39,-180.67 180.67,-180.79 180.96,-180.90 181.25,-181.01 181.54,-181.11 181.84,-181.19 182.14,-181.27 182.44,-181.34 182.75,-181.41 183.05,-181.48 183.35,-181.54 183.66,-181.59 183.97,-181.62 184.27,-181.66 184.58,-181.69 184.89,-181.72 185.20,-181.75 185.51,-181.78"/>
    </edge>
    <edge id=":27_2" function="internal">
        <lane id=":27_2_0" index="0" disallow="pedestrian tram rail_urban rail rail_electric ship" speed="6.98" length="10.23" width="3.51" shape="185.70,-178.29 185.50,-178.27 185.31,-178.25 185.11,-178.24 184.91,-178.22 184.71,-178.20 184.51,-178.18 184.32,-178.15 184.12,-178.12 183.92,-178.09 183.73,-178.05 183.54,-178.01 183.34,-177.96 183.15,-177.91 182.96,-177.86 182.77,-177.81 182.58,-177.75 182.39,-177.67 182.21,-177.60 182.03,-177.52 181.84,-177.44 181.67,-177.34 181.50,-177.24 181.33,-177.13 181.17,-177.02 181.01,-176.91 180.86,-176.77 180.71,-176.64 180.57,-176.50 180.44,-176.35 180.32,-176.19 180.21,-176.03 180.10,-175.86 180.00,-175.69 179.91,-175.51 179.83,-175.33 179.76,-175.14 179.70,-174.95 179.64,-174.76 179.59,-174.57 179.55,-174.37 179.51,-174.18 179.48,-173.98 179.45,-173.78 179.44,-173.58 179.42,-173.39 179.41,-173.19 179.40,-172.99 179.40,-172.79 179.40,-172.11"/>
    </edge>
    <edge id=":27_3" function="internal">
        <lane id=":27_3_0" index="0" disallow="pedestrian tram rail_urban rail rail_electric ship" speed="36.11" length="17.22" width="3.50" shape="185.70,-178.29 177.08,-177.89 168.50,-177.50"/>
    </edge>
    <edge id=":27_4" function="internal">
        <lane id=":27_4_0" index="0" disallow="pedestrian tram rail_urban rail rail_electric ship" speed="13.89" length="17.20" width="3.50" shape="168.33,-180.99 176.92,-181.39 185.51,-181.78"/>
    </edge>
    <edge id=":27_5" function="internal">
        <lane id=":27_5_0" index="0" disallow="pedestrian tram rail_urban rail rail_electric ship" speed="8.48" length="16.34" width="3.51" shape="168.33,-180.99 168.69,-181.00 169.01,-181.00 169.33,-181.00 169.66,-181.00 169.98,-180.99 170.30,-180.99 170.62,-180.96 170.95,-180.93 171.27,-180.89 171.59,-180.86 171.91,-180.82 172.23,-180.77 172.55,-180.72 172.86,-180.64 173.17,-180.55 173.48,-180.47 173.79,-180.38 174.10,-180.29 174.41,-180.19 174.71,-180.06 175.00,-179.92 175.29,-179.78 175.57,-179.63 175.85,-179.47 176.11,-179.28 176.37,-179.09 176.63,-178.89 176.87,-178.68 177.12,-178.47 177.33,-178.23 177.54,-177.98 177.74,-177.73 177.94,-177.48 178.12,-177.21 178.28,-176.93 178.43,-176.64 178.58,-176.36 178.71,-176.07 178.82,-175.76 178.92,-175.45 179.02,-175.15 179.10,-174.83 179.17,-174.52 179.22,-174.20 179.26,-173.88 179.29,-173.56 179.33,-173.24 179.36,-172.92 179.40,-172.11"/>
    </edge>
    <edge id=":28_0" function="internal">
        <lane id=":28_0_0" index="0" disallow="pedestrian tram rail_urban rail rail_electric ship" speed="6.90" length="10.15" width="3.50" shape="-94.76,-19.63 -94.77,-19.84 -94.79,-20.04 -94.81,-20.25 -94.84,-20.46 -94.87,-20.66 -94.89,-20.87 -94.93,-21.07 -94.98,-21.27 -95.03,-21.47 -95.08,-21.67 -95.14,-21.87 -95.20,-22.07 -95.26,-22.26 -95.34,-22.46 -95.42,-22.65 -95.51,-22.83 -95.61,-23.02 -95.71,-23.20 -95.82,-23.37 -95.94,-23.54 -96.06,-23.71 -96.19,-23.87 -96.33,-24.02 -96.48,-24.17 -96.64,-24.30 -96.79,-24.44 -96.96,-24.56 -97.13,-24.68 -97.31,-24.79 -97.49,-24.89 -97.67,-24.99 -97.86,-25.08 -98.05,-25.15 -98.24,-25.22 -98.44,-25.28 -98.64,-25.34 -98.84,-25.40 -99.04,-25.44 -99.25,-25.47 -99.45,-25.51 -99.66,-25.54 -99.87,-25.56 -100.07,-25.58 -100.28,-25.60 -100.49,-25.61 -100.69,-25.61 -100.90,-25.62 -101.11,-25.62 -101.31,-25.62"/>
    </edge>
    <edge id=":28_1" function="internal">
        <lane id=":28_1_0" index="0" disallow="pedestrian tram rail_urban rail rail_electric ship" speed="8.59" length="16.27" width="3.50" shape="-94.76,-19.63 -94.76,-19.96 -94.75,-20.30 -94.75,-20.63 -94.74,-20.96 -94.71,-21.29 -94.67,-21.62 -94.62,-21.95 -94.57,-22.28 -94.53,-22.61 -94.47,-22.93 -94.40,-23.26 -94.30,-23.57 -94.20,-23.89 -94.09,-24.20 -93.97,-24.51 -93.83,-24.81 -93.68,-25.11 -93.52,-25.40 -93.36,-25.69 -93.18,-25.96 -92.97,-26.23 -92.76,-26.48 -92.55,-26.74 -92.33,-26.99 -92.09,-27.21 -91.84,-27.43 -91.58,-27.65 -91.33,-27.86 -91.06,-28.05 -90.77,-28.22 -90.49,-28.39 -90.20,-28.55 -89.91,-28.71 -89.60,-28.84 -89.29,-28.96 -88.98,-29.08 -88.67,-29.20 -88.35,-29.29 -88.03,-29.37 -87.71,-29.45 -87.39,-29.53 -87.06,-29.60 -86.74,-29.68 -86.41,-29.72 -86.08,-29.76 -85.75,-29.80 -85.42,-29.84 -85.09,-29.88 -84.76,-29.91"/>
    </edge>
    <edge id=":28_2" function="internal">
        <lane id=":28_2_0" index="0" disallow="pedestrian tram rail_urban rail rail_electric ship" speed="7.10" length="10.76" width="3.50" shape="-84.54,-26.42 -84.76,-26.40 -84.97,-26.38 -85.19,-26.36 -85.41,-26.33 -85.63,-26.30 -85.85,-26.27 -86.06,-26.23 -86.28,-26.19 -86.49,-26.14 -86.71,-26.09 -86.92,-26.04 -87.13,-25.99 -87.34,-25.92 -87.55,-25.84 -87.75,-25.77 -87.96,-25.69 -88.16,-25.60 -88.35,-25.50 -88.55,-25.40 -88.74,-25.29 -88.93,-25.17 -89.10,-25.05 -89.28,-24.91 -89.45,-24.77 -89.61,-24.63 -89.77,-24.48 -89.92,-24.31 -90.06,-24.15 -90.20,-23.97 -90.33,-23.80 -90.45,-23.61 -90.55,-23.42 -90.65,-23.22 -90.74,-23.02 -90.83,-22.82 -90.90,-22.61 -90.97,-22.40 -91.02,-22.19 -91.08,-21.98 -91.12,-21.76 -91.16,-21.55 -91.19,-21.33 -91.21,-21.11 -91.23,-20.89 -91.25,-20.67 -91.26,-20.45 -91.26,-20.23 -91.26,-20.01 -91.26,-19.79"/>
    </edge>
    <edge id=":28_3" function="internal">
        <lane id=":28_3_0" index="0" disallow="pedestrian tram rail_urban rail rail_electric ship" speed="13.89" length="16.79" width="3.50" shape="-84.54,-26.42 -92.92,-26.02 -101.31,-25.62"/>
    </edge>
    <edge id=":28_4" function="internal">
        <lane id=":28_4_0" index="0" disallow="pedestrian tram rail_urban rail rail_electric ship" speed="36.11" length="16.71" width="3.50" shape="-101.45,-29.11 -93.09,-29.51 -84.76,-29.91"/>
    </edge>
    <edge id=":28_5" function="internal">
        <lane id=":28_5_0" index="0" disallow="pedestrian tram rail_urban rail rail_electric ship" speed="8.42" length="15.69" width="3.50" shape="-101.45,-29.11 -101.09,-29.11 -100.77,-29.10 -100.45,-29.09 -100.13,-29.08 -99.81,-29.07 -99.50,-29.05 -99.18,-29.01 -98.87,-28.96 -98.55,-28.90 -98.24,-28.84 -97.92,-28.78 -97.61,-28.71 -97.30,-28.64 -97.00,-28.53 -96.70,-28.42 -96.40,-28.31 -96.11,-28.19 -95.82,-28.05 -95.54,-27.89 -95.27,-27.72 -95.00,-27.55 -94.73,-27.38 -94.48,-27.18 -94.25,-26.96 -94.01,-26.75 -93.78,-26.53 -93.55,-26.30 -93.36,-26.05 -93.17,-25.80 -92.98,-25.54 -92.80,-25.27 -92.63,-25.00 -92.49,-24.72 -92.35,-24.43 -92.21,-24.14 -92.08,-23.85 -91.97,-23.55 -91.88,-23.24 -91.80,-22.94 -91.71,-22.63 -91.63,-22.32 -91.55,-22.01 -91.48,-21.70 -91.44,-21.38 -91.40,-21.06 -91.37,-20.75 -91.33,-20.43 -91.30,-20.11 -91.26,-19.79"/>
    </edge>
    <edge id=":4_0" function="internal">
        <lane id=":4_0_0" index="0" disallow="pedestrian tram rail_urban rail rail_electric ship" speed="13.89" length="3.00" width="3.50" shape="179.53,-162.97 179.57,-159.97"/>
    </edge>
    <edge id=":5_0" function="internal">
        <lane id=":5_0_0" index="0" disallow="pedestrian tram rail_urban rail rail_electric ship" speed="36.11" length="3.08" width="3.50" shape="176.94,-46.76 176.97,-46.98 176.99,-47.19 177.01,-47.38 177.02,-47.55 177.03,-47.70 177.04,-47.84 177.05,-47.98 177.05,-48.10 177.05,-48.23 177.04,-48.35 177.04,-48.47 177.03,-48.60 177.03,-48.73 177.02,-48.88 177.01,-49.03 177.01,-49.20 177.00,-49.39 177.00,-49.60 177.00,-49.83"/>
    </edge>
    <edge id=":6_0" function="internal">
        <lane id=":6_0_0" index="0" disallow="pedestrian tram rail_urban rail rail_electric ship" speed="13.89" length="3.03" width="3.52" shape="180.49,-49.79 180.44,-46.76"/>
    </edge>
    <edge id=":8_0" function="internal">
        <lane id=":8_0_0" index="0" disallow="pedestrian tram rail_urban rail rail_electric ship" speed="36.11" length="3.29" width="3.70" shape="168.97,-41.10 169.22,-41.11 169.44,-41.12 169.64,-41.12 169.82,-41.12 169.99,-41.12 170.14,-41.12 170.28,-41.13 170.42,-41.13 170.55,-41.13 170.68,-41.14 170.81,-41.14 170.95,-41.15 171.09,-41.17 171.24,-41.18 171.40,-41.20 171.58,-41.23 171.78,-41.26 172.00,-41.30 172.24,-41.35"/>
    </edge>
    <edge id=":9_0" function="internal">
        <lane id=":9_0_0" index="0" disallow="pedestrian tram rail_urban rail rail_electric ship" speed="13.89" length="3.20" width="3.50" shape="172.38,-37.82 172.14,-37.78 171.93,-37.75 171.74,-37.72 171.56,-37.69 171.40,-37.67 171.25,-37.66 171.12,-37.65 170.98,-37.64 170.86,-37.63 170.73,-37.63 170.60,-37.63 170.47,-37.63 170.33,-37.63 170.18,-37.63 170.02,-37.63 169.84,-37.62 169.64,-37.62 169.43,-37.62 169.19,-37.61"/>
    </edge>

    <edge id="1" from="1" to="27" priority="3" type="highway.residential" spreadType="center" length="9.11" shape="176.05,-161.44 175.48,-177.41">
        <lane id="1_0" index="0" disallow="pedestrian tram rail_urban rail rail_electric ship" speed="36.11" length="9.11" width="3.51" customShape="1" shape="176.03,-162.93 176.03,-163.24 176.02,-163.47 176.02,-163.70 176.02,-163.92 176.02,-164.15 176.01,-164.38 176.01,-164.60 176.01,-164.83 176.00,-165.05 176.00,-165.28 176.00,-165.51 175.99,-165.73 175.99,-165.96 175.99,-166.19 175.99,-166.41 175.98,-166.64 175.98,-166.86 175.98,-167.09 175.97,-167.32 175.97,-167.54 175.97,-167.77 175.96,-168.00 175.96,-168.22 175.96,-168.45 175.96,-168.67 175.95,-168.90 175.95,-169.13 175.95,-169.35 175.94,-169.58 175.94,-169.80 175.94,-170.03 175.93,-170.26 175.93,-170.48 175.93,-170.71 175.92,-170.94 175.92,-171.16 175.92,-171.39 175.91,-171.61 175.91,-171.84 175.91,-172.04"/>
    </edge>
    <edge id="10" from="27" to="12" priority="3" type="highway.residential" spreadType="center" length="384.76" shape="177.31,-175.53 -215.78,-158.74">
        <lane id="10_0" index="0" disallow="pedestrian tram rail_urban rail rail_electric ship" speed="36.11" length="384.76" width="3.50" customShape="1" shape="168.50,-177.50 -32.03,-167.99 -46.01,-167.22 -84.40,-164.34 -103.03,-163.16 -146.97,-161.31 -168.94,-160.65 -215.78,-158.74"/>
    </edge>
    <edge id="11" from="13" to="27" priority="3" type="highway.residential_speed_13.89" spreadType="center" length="384.77" shape="-215.92,-162.24 177.16,-179.03">
        <lane id="11_0" index="0" disallow="pedestrian tram rail_urban rail rail_electric ship" speed="13.89" length="384.77" width="3.50" customShape="1" shape="-215.92,-162.24 -169.06,-164.15 -147.11,-164.80 -103.22,-166.65 -84.65,-167.83 -46.24,-170.71 -32.19,-171.49 168.37,-180.99"/>
    </edge>
    <edge id="13" from="15" to="27" priority="3" type="highway.residential" spreadType="center" length="29.79" shape="215.43,-179.64 177.34,-175.53">
        <lane id="13_0" index="0" disallow="pedestrian tram rail_urban rail rail_electric ship" speed="36.11" length="29.79" width="3.50" customShape="1" shape="215.43,-179.64 200.55,-178.96 185.67,-178.28"/>
    </edge>
    <edge id="14" from="27" to="18" priority="3" type="highway.residential_speed_13.89" spreadType="center" length="29.79" shape="176.96,-179.01 215.27,-183.13">
        <lane id="14_0" index="0" disallow="pedestrian tram rail_urban rail rail_electric ship" speed="13.89" length="29.79" width="3.50" customShape="1" shape="185.51,-181.78 200.39,-182.46 215.27,-183.13"/>
    </edge>
    <edge id="16" from="19" to="28" priority="3" type="highway.residential" spreadType="center" length="200.29" shape="-86.01,180.46 -94.76,-25.02">
        <lane id="16_0" index="0" disallow="pedestrian tram rail_urban rail rail_electric ship" speed="36.11" length="200.29" width="3.50" customShape="1" shape="-86.01,180.46 -86.19,176.38 -86.37,172.29 -86.55,168.21 -86.73,164.13 -86.91,160.04 -87.08,155.96 -87.26,151.88 -87.44,147.79 -87.62,143.71 -87.80,139.63 -87.98,135.54 -88.16,131.46 -88.33,127.38 -88.51,123.29 -88.69,119.21 -88.87,115.12 -89.05,111.04 -89.23,106.96 -89.40,102.87 -89.58,98.79 -89.76,94.71 -89.94,90.62 -90.12,86.54 -90.30,82.46 -90.47,78.37 -90.65,74.29 -90.83,70.21 -91.01,66.12 -91.19,62.04 -91.37,57.96 -91.55,53.87 -91.72,49.79 -91.90,45.70 -92.08,41.62 -92.26,37.54 -92.44,33.45 -92.62,29.37 -92.79,25.29 -92.97,21.20 -93.15,17.12 -93.33,13.04 -93.51,8.95 -93.69,4.87 -93.86,0.79 -94.04,-3.30 -94.22,-7.38 -94.40,-11.47 -94.58,-15.55 -94.76,-19.64"/>
    </edge>
    <edge id="17" from="28" to="22" priority="3" type="highway.residential_speed_13.89" spreadType="center" length="200.25" shape="-91.26,-25.17 -82.52,180.27">
        <lane id="17_0" index="0" disallow="pedestrian tram rail_urban rail rail_electric ship" speed="13.89" length="200.25" width="3.50" customShape="1" shape="-91.26,-19.79 -91.08,-15.71 -90.91,-11.63 -90.73,-7.55 -90.55,-3.46 -90.37,0.62 -90.19,4.70 -90.01,8.79 -89.84,12.87 -89.66,16.95 -89.48,21.03 -89.30,25.12 -89.12,29.20 -88.94,33.28 -88.77,37.37 -88.59,41.45 -88.41,45.53 -88.23,49.61 -88.05,53.70 -87.87,57.78 -87.70,61.86 -87.52,65.95 -87.34,70.03 -87.16,74.11 -86.98,78.19 -86.80,82.28 -86.62,86.36 -86.45,90.44 -86.27,94.53 -86.09,98.61 -85.91,102.69 -85.73,106.78 -85.55,110.86 -85.38,114.94 -85.20,119.02 -85.02,123.11 -84.84,127.19 -84.66,131.27 -84.48,135.36 -84.31,139.44 -84.13,143.52 -83.95,147.60 -83.77,151.69 -83.59,155.77 -83.41,159.85 -83.24,163.94 -83.06,168.02 -82.88,172.10 -82.70,176.18 -82.52,180.27"/>
    </edge>
    <edge id="19" from="23" to="28" priority="3" type="highway.residential" spreadType="center" length="109.91" shape="-211.25,-25.09 -93.01,-26.83">
        <lane id="19_0" index="0" disallow="pedestrian tram rail_urban rail rail_electric ship" speed="36.11" length="109.91" width="3.50" customShape="1" shape="-211.25,-25.09 -142.27,-27.47 -101.41,-29.11"/>
    </edge>
    <edge id="2" from="27" to="4" priority="3" type="highway.residential_speed_13.89" spreadType="center" length="9.14" shape="178.96,-177.53 179.55,-161.47">
        <lane id="2_0" index="0" disallow="pedestrian tram rail_urban rail rail_electric ship" speed="13.89" length="9.14" width="3.51" customShape="1" shape="179.40,-172.11 179.41,-171.91 179.41,-171.69 179.41,-171.46 179.42,-171.23 179.42,-171.01 179.43,-170.78 179.43,-170.55 179.43,-170.32 179.44,-170.10 179.44,-169.87 179.44,-169.64 179.45,-169.42 179.45,-169.19 179.45,-168.96 179.45,-168.73 179.46,-168.51 179.46,-168.28 179.46,-168.05 179.47,-167.83 179.47,-167.60 179.47,-167.37 179.47,-167.15 179.48,-166.92 179.48,-166.69 179.48,-166.46 179.49,-166.24 179.49,-166.01 179.49,-165.78 179.49,-165.56 179.50,-165.33 179.50,-165.10 179.50,-164.87 179.51,-164.65 179.51,-164.42 179.51,-164.19 179.52,-163.97 179.52,-163.74 179.52,-163.51 179.52,-163.29 179.53,-162.97"/>
    </edge>
    <edge id="20" from="28" to="26" priority="3" type="highway.residential_speed_13.89" spreadType="center" length="109.89" shape="-92.95,-23.33 -211.13,-21.59">
        <lane id="20_0" index="0" disallow="pedestrian tram rail_urban rail rail_electric ship" speed="13.89" length="109.89" width="3.50" customShape="1" shape="-101.31,-25.62 -142.13,-23.98 -211.13,-21.59"/>
    </edge>
    <edge id="30" from="6" to="9" priority="3" type="highway.residential_speed_13.89" spreadType="center" length="13.25">
        <lane id="30_0" index="0" disallow="pedestrian tram rail_urban rail rail_electric ship" speed="13.89" length="13.25" width="3.52" customShape="1" shape="180.44,-46.76 180.43,-46.60 180.41,-46.27 180.36,-45.94 180.31,-45.61 180.25,-45.28 180.19,-44.95 180.12,-44.62 180.06,-44.30 179.98,-43.97 179.87,-43.66 179.76,-43.34 179.65,-43.03 179.53,-42.71 179.38,-42.42 179.22,-42.12 179.06,-41.83 178.90,-41.54 178.70,-41.27 178.50,-41.00 178.29,-40.74 178.07,-40.49 177.85,-40.24 177.59,-40.02 177.34,-39.81 177.08,-39.60 176.81,-39.40 176.53,-39.22 176.24,-39.05 175.95,-38.89 175.65,-38.74 175.35,-38.60 175.03,-38.48 174.72,-38.37 174.40,-38.26 174.09,-38.17 173.76,-38.09 173.43,-38.02 173.10,-37.96 172.78,-37.90 172.38,-37.82"/>
    </edge>
    <edge id="31" from="8" to="5" priority="3" type="highway.residential" spreadType="center" length="7.83">
        <lane id="31_0" index="0" disallow="pedestrian tram rail_urban rail rail_electric ship" speed="36.11" length="7.83" width="3.70" customShape="1" shape="172.24,-41.35 172.39,-41.38 172.61,-41.42 172.83,-41.47 173.05,-41.53 173.27,-41.59 173.48,-41.67 173.69,-41.75 173.89,-41.83 174.10,-41.93 174.30,-42.03 174.49,-42.15 174.68,-42.27 174.87,-42.39 175.04,-42.54 175.21,-42.68 175.37,-42.84 175.53,-43.00 175.67,-43.18 175.80,-43.36 175.93,-43.54 176.05,-43.73 176.16,-43.93 176.26,-44.13 176.36,-44.33 176.44,-44.54 176.52,-44.75 176.59,-44.96 176.65,-45.18 176.71,-45.40 176.76,-45.62 176.80,-45.84 176.84,-46.06 176.88,-46.28 176.91,-46.50 176.94,-46.76"/>
    </edge>
    <edge id="4" from="5" to="1" priority="3" type="highway.residential" spreadType="center" length="110.11">
        <lane id="4_0" index="0" disallow="pedestrian tram rail_urban rail rail_electric ship" speed="36.11" length="110.11" width="3.50" customShape="1" shape="177.00,-49.83 176.53,-104.84 176.07,-159.94"/>
    </edge>
    <edge id="5" from="4" to="6" priority="3" type="highway.residential_speed_13.89" spreadType="center" length="110.18">
        <lane id="5_0" index="0" disallow="pedestrian tram rail_urban rail rail_electric ship" speed="13.89" length="110.18" width="3.50" customShape="1" shape="179.57,-159.97 180.03,-104.87 180.49,-49.79"/>
    </edge>
    <edge id="7" from="28" to="8" priority="3" type="highway.residential" spreadType="center" length="253.98" shape="-93.11,-26.83 170.61,-41.17">
        <lane id="7_0" index="0" disallow="pedestrian tram rail_urban rail rail_electric ship" speed="36.11" length="253.98" width="3.50" customShape="1" shape="-84.76,-29.91 -81.15,-30.11 147.34,-40.24 168.97,-41.10"/>
    </edge>
    <edge id="8" from="9" to="28" priority="3" type="highway.residential_speed_13.89" spreadType="center" length="254.01" shape="170.79,-37.67 -92.92,-23.33">
        <lane id="8_0" index="0" disallow="pedestrian tram rail_urban rail rail_electric ship" speed="13.89" length="254.01" width="3.50" customShape="1" shape="169.19,-37.61 147.49,-36.74 -80.97,-26.62 -84.57,-26.42"/>
    </edge>

    <junction id="1" type="priority" x="176.05" y="-161.44" incLanes="4_0" intLanes=":1_0_0" shape="174.32,-159.92 177.82,-159.95 177.79,-162.96 174.28,-162.91">
        <request index="0" response="0" foes="0" cont="0"/>
    </junction>
    <junction id="12" type="dead_end" x="-215.78" y="-158.74" incLanes="10_0" intLanes="" shape="-215.71,-157.00 -215.85,-160.49"/>
    <junction id="13" type="dead_end" x="-215.92" y="-162.24" incLanes="" intLanes="" shape="-215.85,-160.49 -215.99,-163.99"/>
    <junction id="15" type="dead_end" x="215.43" y="-179.64" incLanes="" intLanes="" shape="215.35,-181.39 215.51,-177.89"/>
    <junction id="18" type="dead_end" x="215.27" y="-183.13" incLanes="14_0" intLanes="" shape="215.19,-184.88 215.35,-181.39"/>
    <junction id="19" type="dead_end" x="-86.01" y="180.46" incLanes="" intLanes="" shape="-84.26,180.38 -87.76,180.54"/>
    <junction id="22" type="dead_end" x="-82.52" y="180.27" incLanes="17_0" intLanes="" shape="-80.77,180.19 -84.27,180.35"/>
    <junction id="23" type="dead_end" x="-211.25" y="-25.09" incLanes="" intLanes="" shape="-211.19,-23.34 -211.31,-26.83"/>
    <junction id="26" type="dead_end" x="-211.13" y="-21.59" incLanes="20_0" intLanes="" shape="-211.07,-19.84 -211.19,-23.34"/>
    <junction id="27" type="priority" x="177.23" y="-177.28" incLanes="1_0 13_0 11_0" intLanes=":27_0_0 :27_1_0 :27_2_0 :27_3_0 :27_4_0 :27_5_0" shape="174.15,-172.01 181.16,-172.14 181.63,-174.50 182.27,-175.34 183.16,-175.96 184.32,-176.36 185.75,-176.54 185.43,-183.53 168.25,-182.74 168.58,-175.75 171.65,-175.45 172.73,-174.95 173.51,-174.22 173.98,-173.25" rightOfWay="edgePriority">
        <request index="0" response="001000" foes="001000" cont="0"/>
        <request index="1" response="111000" foes="111000" cont="0"/>
        <request index="2" response="000000" foes="100000" cont="0"/>
        <request index="3" response="000000" foes="100011" cont="0"/>
        <request index="4" response="000000" foes="000010" cont="0"/>
        <request index="5" response="001100" foes="001110" cont="0"/>
    </junction>
    <junction id="28" type="priority" x="-93.01" y="-25.08" incLanes="16_0 8_0 19_0" intLanes=":28_0_0 :28_1_0 :28_2_0 :28_3_0 :28_4_0 :28_5_0" shape="-96.51,-19.57 -89.51,-19.87 -89.04,-22.41 -88.35,-23.33 -87.36,-24.01 -86.07,-24.46 -84.47,-24.67 -84.86,-31.66 -101.52,-30.86 -101.24,-23.87 -98.70,-23.47 -97.79,-22.88 -97.12,-22.04 -96.69,-20.93" rightOfWay="edgePriority">
        <request index="0" response="001000" foes="001000" cont="0"/>
        <request index="1" response="111000" foes="111000" cont="0"/>
        <request index="2" response="000000" foes="100000" cont="0"/>
        <request index="3" response="000000" foes="100011" cont="0"/>
        <request index="4" response="000000" foes="000010" cont="0"/>
        <request index="5" response="001100" foes="001110" cont="0"/>
    </junction>
    <junction id="4" type="priority" x="179.55" y="-161.47" incLanes="2_0" intLanes=":4_0_0" shape="177.82,-159.96 181.32,-159.99 181.28,-163.00 177.78,-162.94">
        <request index="0" response="0" foes="0" cont="0"/>
    </junction>
    <junction id="5" type="priority" x="177.01" y="-48.29" incLanes="31_0" intLanes=":5_0_0" shape="178.75,-49.85 175.25,-49.82 175.26,-48.68 175.25,-48.28 175.22,-47.88 175.17,-47.40 175.08,-46.78 178.79,-46.73 178.85,-47.93 178.83,-48.32 178.80,-48.72 178.76,-49.20">
        <request index="0" response="0" foes="0" cont="0"/>
    </junction>
    <junction id="6" type="priority" x="180.51" y="-48.27" incLanes="5_0" intLanes=":6_0_0" shape="182.24,-49.80 178.74,-49.77 178.68,-46.83 182.20,-46.69">
        <request index="0" response="0" foes="0" cont="0"/>
    </junction>
    <junction id="8" type="priority" x="170.61" y="-41.17" incLanes="7_0" intLanes=":8_0_0" shape="172.36,-39.49 172.11,-43.21 170.88,-42.97 170.48,-42.92 170.07,-42.89 168.90,-42.85 169.04,-39.35 170.28,-39.35 170.71,-39.34 171.14,-39.34 171.66,-39.39">
        <request index="0" response="0" foes="0" cont="0"/>
    </junction>
    <junction id="9" type="priority" x="170.79" y="-37.67" incLanes="30_0" intLanes=":9_0_0" shape="172.51,-36.06 172.24,-39.59 171.04,-39.40 170.64,-39.38 170.25,-39.38 169.77,-39.37 169.12,-39.36 169.26,-35.86 170.47,-35.88 170.89,-35.89 171.31,-35.91 171.82,-35.96">
        <request index="0" response="0" foes="0" cont="0"/>
    </junction>

    <connection from="1" to="10" fromLane="0" toLane="0" contPos="-4.00" shape="175.90,-172.52 175.89,-172.72 175.87,-172.93 175.84,-173.14 175.82,-173.34 175.79,-173.55 175.75,-173.76 175.71,-173.96 175.65,-174.16 175.58,-174.36 175.50,-174.55 175.42,-174.74 175.33,-174.93 175.23,-175.11 175.11,-175.28 174.98,-175.45 174.85,-175.61 174.72,-175.77 174.57,-175.91 174.41,-176.05 174.25,-176.18 174.09,-176.31 173.92,-176.43 173.74,-176.54 173.56,-176.64 173.38,-176.73 173.19,-176.82 173.00,-176.91 172.81,-176.98 172.61,-177.04 172.41,-177.11 172.21,-177.17 172.01,-177.22 171.81,-177.26 171.60,-177.30 171.40,-177.34 171.19,-177.37 170.99,-177.41 170.78,-177.43 170.58,-177.45 170.37,-177.47 170.16,-177.48 169.96,-177.50 169.75,-177.51 169.54,-177.51 169.33,-177.51 169.12,-177.51 168.92,-177.51 168.71,-177.50 168.50,-177.50" via=":27_0_0" dir="r" state="m"/>