<net xmlns:xsi="http://www.w3.org/2001/XMLSchema-instance" version="1.3" junctionCornerDetail="5" junctionLinkDetail="20" limitTurnSpeed="5.50" xsi:noNamespaceSchemaLocation="http://sumo.dlr.de/xsd/net_file.xsd">

    <location netOffset="0.00,0.00" convBoundary="-77.61,-283.04,57.02,81.22" origBoundary="-80.89,-284.26,60.31,82.43" projParameter="!"/>

    <type id="highway.bridleway" priority="1" speed="2.78" allow="pedestrian" oneway="1"/>
    <type id="highway.bus_guideway" priority="1" speed="27.78" allow="bus" oneway="1"/>
    <type id="highway.cycleway" priority="1" speed="8.33" allow="bicycle"/>
    <type id="highway.footway" priority="1" speed="2.78" allow="pedestrian" oneway="1"/>
    <type id="highway.ford" priority="1" speed="2.78" allow="army"/>
    <type id="highway.living_street" priority="2" speed="2.78" disallow="tram rail_urban rail rail_electric ship"/>
    <type id="highway.motorway" priority="14" speed="39.44" disallow="pedestrian moped bicycle tram rail_urban rail rail_electric ship" oneway="1"/>
    <type id="highway.motorway_link" priority="9" speed="22.22" disallow="pedestrian moped bicycle tram rail_urban rail rail_electric ship" oneway="1"/>
    <type id="highway.path" priority="1" speed="2.78" allow="pedestrian bicycle"/>
    <type id="highway.pedestrian" priority="1" speed="2.78" allow="pedestrian" oneway="1"/>
    <type id="highway.primary" priority="12" speed="27.78" disallow="pedestrian tram rail_urban rail rail_electric ship"/>
    <type id="highway.primary_link" priority="7" speed="22.22" disallow="pedestrian tram rail_urban rail rail_electric ship"/>
    <type id="highway.raceway" priority="15" speed="83.33" allow="vip"/>
    <type id="highway.residential" priority="3" speed="13.89" disallow="pedestrian tram rail_urban rail rail_electric ship"/>
    <type id="highway.residential_speed_13.89" priority="3" speed="13.89" disallow="pedestrian tram rail_urban rail rail_electric ship"/>
    <type id="highway.secondary" priority="11" speed="27.78" disallow="pedestrian tram rail_urban rail rail_electric ship"/>
    <type id="highway.secondary_link" priority="6" speed="22.22" disallow="pedestrian tram rail_urban rail rail_electric ship"/>
    <type id="highway.service" priority="1" speed="5.56" allow="pedestrian delivery bicycle"/>
    <type id="highway.stairs" priority="1" speed="1.39" allow="pedestrian" oneway="1"/>
    <type id="highway.step" priority="1" speed="1.39" allow="pedestrian" oneway="1"/>
    <type id="highway.steps" priority="1" speed="1.39" allow="pedestrian" oneway="1"/>
    <type id="highway.tertiary" priority="10" speed="22.22" disallow="pedestrian tram rail_urban rail rail_electric ship"/>
    <type id="highway.tertiary_link" priority="5" speed="22.22" disallow="pedestrian tram rail_urban rail rail_electric ship"/>
    <type id="highway.track" priority="1" speed="5.56" allow="pedestrian motorcycle moped bicycle"/>
    <type id="highway.trunk" priority="13" speed="27.78" disallow="pedestrian bicycle tram rail_urban rail rail_electric ship"/>
    <type id="highway.trunk_link" priority="8" speed="22.22" disallow="pedestrian bicycle tram rail_urban rail rail_electric ship"/>
    <type id="highway.unclassified" priority="4" speed="13.89" disallow="tram rail_urban rail rail_electric ship"/>
    <type id="highway.unsurfaced" priority="1" speed="8.33" disallow="tram rail_urban rail rail_electric ship"/>
    <type id="railway.highspeed" priority="21" speed="69.44" allow="rail" oneway="1"/>
    <type id="railway.light_rail" priority="19" speed="27.78" allow="rail_urban" oneway="1"/>
    <type id="railway.preserved" priority="16" speed="27.78" allow="rail" oneway="1"/>
    <type id="railway.rail" priority="20" speed="44.44" allow="rail" oneway="1"/>
    <type id="railway.subway" priority="18" speed="27.78" allow="rail_urban" oneway="1"/>
    <type id="railway.tram" priority="17" speed="13.89" allow="tram" oneway="1"/>

    <edge id=":2_0" function="internal">
        <lane id=":2_0_0" index="0" disallow="pedestrian tram rail_urban rail rail_electric ship" speed="13.89" length="3.00" width="3.50" shape="7.29,-63.71 8.33,-60.90"/>
        <lane id=":2_0_1" index="1" disallow="pedestrian tram rail_urban rail rail_electric ship" speed="13.89" length="3.00" width="3.50" shape="4.01,-62.49 5.05,-59.68"/>
        <lane id=":2_0_2" index="2" disallow="pedestrian tram rail_urban rail rail_electric ship" speed="13.89" length="3.00" width="3.50" shape="0.73,-61.28 1.77,-58.47"/>
    </edge>
    <edge id=":3_0" function="internal">
        <lane id=":3_0_0" index="0" disallow="pedestrian tram rail_urban rail rail_electric ship" speed="13.89" length="3.00" width="3.50" shape="12.68,-49.15 13.72,-46.34"/>
        <lane id=":3_0_1" index="1" disallow="pedestrian tram rail_urban rail rail_electric ship" speed="13.89" length="3.01" width="3.50" shape="9.40,-47.94 10.44,-45.12"/>
        <lane id=":3_0_2" index="2" disallow="pedestrian tram rail_urban rail rail_electric ship" speed="13.89" length="3.00" width="3.50" shape="6.12,-46.72 7.16,-43.91"/>
    </edge>
    <edge id=":4_0" function="internal">
        <lane id=":4_0_0" index="0" disallow="pedestrian tram rail_urban rail rail_electric ship" speed="13.89" length="3.01" width="3.50" shape="27.29,-9.67 28.34,-6.85"/>
        <lane id=":4_0_1" index="1" disallow="pedestrian tram rail_urban rail rail_electric ship" speed="13.89" length="3.00" width="3.50" shape="24.01,-8.45 25.05,-5.64"/>
        <lane id=":4_0_2" index="2" disallow="pedestrian tram rail_urban rail rail_electric ship" speed="13.89" length="3.01" width="3.50" shape="20.73,-7.24 21.77,-4.42"/>
    </edge>
    <edge id=":5_0" function="internal">
        <lane id=":5_0_0" index="0" disallow="pedestrian tram rail_urban rail rail_electric ship" speed="13.89" length="3.01" width="3.50" shape="32.67,4.89 33.71,7.71"/>
        <lane id=":5_0_1" index="1" disallow="pedestrian tram rail_urban rail rail_electric ship" speed="13.89" length="3.00" width="3.50" shape="29.39,6.10 30.42,8.92"/>
        <lane id=":5_0_2" index="2" disallow="pedestrian tram rail_urban rail rail_electric ship" speed="13.89" length="3.01" width="3.50" shape="26.10,7.31 27.14,10.13"/>
    </edge>

    <edge id="11" from="3" to="4" priority="3" type="highway.residential_speed_13.89" spreadType="center" length="39.10">
        <lane id="11_0" index="0" disallow="pedestrian tram rail_urban rail rail_electric ship" speed="13.89" length="39.10" width="3.50" customShape="1" shape="13.72,-46.34 20.51,-28.00 27.29,-9.67"/>
        <lane id="11_1" index="1" disallow="pedestrian tram rail_urban rail rail_electric ship" speed="13.89" length="39.10" width="3.50" customShape="1" shape="10.44,-45.12 17.23,-26.79 24.01,-8.45"/>
        <lane id="11_2" index="2" disallow="pedestrian tram rail_urban rail rail_electric ship" speed="13.89" length="39.10" width="3.50" customShape="1" shape="7.16,-43.91 13.94,-25.57 20.73,-7.24"/>
    </edge>
    <edge id="15" from="5" to="6" priority="3" type="highway.residential_speed_13.89" spreadType="center" length="77.04">
        <lane id="15_0" index="0" disallow="pedestrian tram rail_urban rail rail_electric ship" speed="13.89" length="77.04" width="3.50" customShape="1" shape="33.71,7.71 46.75,43.16 60.31,80.01"/>
        <lane id="15_1" index="1" disallow="pedestrian tram rail_urban rail rail_electric ship" speed="13.89" length="77.04" width="3.50" customShape="1" shape="30.42,8.92 43.46,44.37 57.02,81.22"/>
        <lane id="15_2" index="2" disallow="pedestrian tram rail_urban rail rail_electric ship" speed="13.89" length="77.04" width="3.50" customShape="1" shape="27.14,10.13 40.18,45.58 53.74,82.43"/>
    </edge>
    <edge id="23" from="2" to="3" priority="3" type="highway.residential_speed_13.89" spreadType="center" length="12.52">
        <lane id="23_0" index="0" disallow="pedestrian tram rail_urban rail rail_electric ship" speed="13.89" length="12.53" width="3.50" customShape="1" shape="8.33,-60.90 10.51,-55.02 12.68,-49.15"/>
        <lane id="23_1" index="1" disallow="pedestrian tram rail_urban rail rail_electric ship" speed="13.89" length="12.52" width="3.50" customShape="1" shape="5.05,-59.68 7.22,-53.81 9.40,-47.94"/>
        <lane id="23_2" index="2" disallow="pedestrian tram rail_urban rail rail_electric ship" speed="13.89" length="12.53" width="3.50" customShape="1" shape="1.77,-58.47 3.94,-52.59 6.12,-46.72"/>
    </edge>
    <edge id="26" from="4" to="5" priority="3" type="highway.residential_speed_13.89" spreadType="center" length="12.50">
        <lane id="26_0" index="0" disallow="pedestrian tram rail_urban rail rail_electric ship" speed="13.89" length="12.51" width="3.50" customShape="1" shape="28.34,-6.85 30.50,-0.98 32.67,4.89"/>
        <lane id="26_1" index="1" disallow="pedestrian tram rail_urban rail rail_electric ship" speed="13.89" length="12.52" width="3.50" customShape="1" shape="25.05,-5.64 27.22,0.23 29.39,6.10"/>
        <lane id="26_2" index="2" disallow="pedestrian tram rail_urban rail rail_electric ship" speed="13.89" length="12.50" width="3.50" customShape="1" shape="21.77,-4.42 23.94,1.45 26.10,7.31"/>
    </edge>
    <edge id="7" from="1" to="2" priority="3" type="highway.residential_speed_13.89" spreadType="center" length="235.16">
        <lane id="7_0" index="0" disallow="pedestrian tram rail_urban rail rail_electric ship" speed="13.89" length="235.16" width="3.50" customShape="1" shape="-74.32,-284.26 -33.26,-173.28 7.29,-63.71"/>
        <lane id="7_1" index="1" disallow="pedestrian tram rail_urban rail rail_electric ship" speed="13.89" length="235.17" width="3.50" customShape="1" shape="-77.61,-283.04 -36.54,-172.06 4.01,-62.49"/>
        <lane id="7_2" index="2" disallow="pedestrian tram rail_urban rail rail_electric ship" speed="13.89" length="235.17" width="3.50" customShape="1" shape="-80.89,-281.83 -39.82,-170.85 0.73,-61.28"/>
    </edge>

    <junction id="1" type="dead_end" x="-77.61" y="-283.04" incLanes="" intLanes="" shape="-82.53,-281.22 -72.68,-284.86"/>
    <junction id="2" type="priority" x="4.53" y="-61.09" incLanes="7_0 7_1 7_2" intLanes=":2_0_0 :2_0_1 :2_0_2" shape="0.13,-57.86 9.98,-61.50 8.93,-64.32 -0.91,-60.67">
        <request index="0" response="000" foes="000" cont="0"/>
        <request index="1" response="000" foes="000" cont="0"/>
        <request index="2" response="000" foes="000" cont="0"/>
    </junction>
    <junction id="3" type="priority" x="9.92" y="-46.53" incLanes="23_0 23_1 23_2" intLanes=":3_0_0 :3_0_1 :3_0_2" shape="5.52,-43.30 15.36,-46.94 14.32,-49.76 4.47,-46.11">
        <request index="0" response="000" foes="000" cont="0"/>
        <request index="1" response="000" foes="000" cont="0"/>
        <request index="2" response="000" foes="000" cont="0"/>
    </junction>
    <junction id="4" type="priority" x="24.53" y="-7.05" incLanes="11_0 11_1 11_2" intLanes=":4_0_0 :4_0_1 :4_0_2" shape="20.13,-3.82 29.98,-7.46 28.93,-10.28 19.09,-6.63">
        <request index="0" response="000" foes="000" cont="0"/>
        <request index="1" response="000" foes="000" cont="0"/>
        <request index="2" response="000" foes="000" cont="0"/>
    </junction>
    <junction id="5" type="priority" x="29.91" y="7.51" incLanes="26_0 26_1 26_2" intLanes=":5_0_0 :5_0_1 :5_0_2" shape="25.50,10.74 35.35,7.11 34.31,4.29 24.46,7.92">
        <request index="0" response="000" foes="000" cont="0"/>
        <request index="1" response="000" foes="000" cont="0"/>
        <request index="2" response="000" foes="000" cont="0"/>
    </junction>
    <junction id="6" type="dead_end" x="57.02" y="81.22" incLanes="15_0 15_1 15_2" intLanes="" shape="61.95,79.41 52.10,83.03"/>

    <connection from="11" to="26" fromLane="0" toLane="0" contPos="-4.00" via=":4_0_0" dir="s" state="M"/>
    <connection from="11" to="26" fromLane="1" toLane="1" contPos="-4.00" via=":4_0_1" dir="s" state="M"/>
    <connection from="11" to="26" fromLane="2" toLane="2" contPos="-4.00" via=":4_0_2" dir="s" state="M"/>
    <connection from="23" to="11" fromLane="0" toLane="0" contPos="-4.00" via=":3_0_0" dir="s" state="M"/>
    <connection from="23" to="11" fromLane="1" toLane="1" contPos="-4.00" via=":3_0_1" dir="s" state="M"/>
    <connection from="23" to="11" fromLane="2" toLane="2" contPos="-4.00" via=":3_0_2" dir="s" state="M"/>
    <connection from="26" to="15" fromLane="0" toLane="0" contPos="-4.00" via=":5_0_0" dir="s" state="M"/>
    <connection from="26" to="15" fromLane="1" toLane="1" contPos="-4.00" via=":5_0_1" dir="s" state="M"/>
    <connection from="26" to="15" fromLane="2" toLane="2" contPos="-4.00" via=":5_0_2" dir="s" state="M"/>
    <connection from="7" to="23" fromLane="0" toLane="0" contPos="-4.00" via=":2_0_0" dir="s" state="M"/>
    <connection from="7" to="23" fromLane="1" toLane="1" contPos="-4.00" via=":2_0_1" dir="s" state="M"/>
    <connection from="7" to="23" fromLane="2" toLane="2" contPos="-4.00" via=":2_0_2" dir="s" state="M"/>

    <connection from=":2_0" to="23" fromLane="0" toLane="0" dir="s" state="M"/>
    <connection from=":2_0" to="23" fromLane="1" toLane="1" dir="s" state="M"/>
    <connection from=":2_0" to="23" fromLane="2" toLane="2" dir="s" state="M"/>
    <connection from=":3_0" to="11" fromLane="0" toLane="0" dir="s" state="M"/>
    <connection from=":3_0" to="11" fromLane="1" toLane="1" dir="s" state="M"/>
    <connection from=":3_0" to="11" fromLane="2" toLane="2" dir="s" state="M"/>
    <connection from=":4_0" to="26" fromLane="0" toLane="0" dir="s" state="M"/>
    <connection from=":4_0" to="26" fromLane="1" toLane="1" dir="s" state="M"/>
    <connection from=":4_0" to="26" fromLane="2" toLane="2" dir="s" state="M"/>
    <connection from=":5_0" to="15" fromLane="0" toLane="0" dir="s" state="M"/>
    <connection from=":5_0" to="15" fromLane="1" toLane="1" dir="s" state="M"/>
    <connection from=":5_0" to="15" fromLane="2" toLane="2" dir="s" state="M"/>

</net>