<?xml version='1.0' encoding='utf-8'?>
<routes xmlns:xsi="http://www.w3.org/2001/XMLSchema-instance" xsi:noNamespaceSchemaLocation="http://sumo.dlr.de/xsd/routes_file.xsd">
    <vType id="passenger" length="4.46" minGap="4.42" maxSpeed="50.00" probability="4.00" speedFactor="normc(1.06,0.17,0.20,2.00)" vClass="passenger" impatience="0.16" guiShape="passenger" width="2.05" minGapLat="1.50" lcStrategic="1.51" lcCooperative="1.33" lcSpeedGain="6.63" lcKeepRight="0.87" lcSublane="2.00" lcImpatience="0.00" lcMaxSpeedLatStanding="0.00" lcSigma="0.10" accel="2.71" decel="6.91" sigma="0.54" />
    <vehicle id="1" depart="0.13" departLane="free" departPos="random_free" departSpeed="max">
        <route edges="4 19 10 7" />
    </vehicle>
    <vehicle id="4" depart="0.53" departLane="free" departPos="random_free" departSpeed="max">
        <route edges="2 5" />
    </vehicle>
    <vehicle id="5" depart="0.66" departLane="free" departPos="random_free" departSpeed="max">
        <route edges="13 11 20 5" />
    </vehicle>
    <vehicle id="6" depart="0.79" departLane="free" departPos="random_free" departSpeed="max">
        <route edges="17 20 5" />
    </vehicle>
    <vehicle id="7" depart="0.92" departLane="free" departPos="random_free" departSpeed="max">
        <route edges="4 19 10 14" />
    </vehicle>
    <vehicle id="8" depart="1.05" departLane="free" departPos="random_free" departSpeed="max">
        <route edges="2 5" />
    </vehicle>
    <vehicle id="9" depart="1.19" departLane="free" departPos="random_free" departSpeed="max">
        <route edges="2 19 10 14" />
    </vehicle>
    <vehicle id="10" depart="1.32" departLane="free" departPos="random_free" departSpeed="max">
        <route edges="8 14" />
    </vehicle>
    <vehicle id="11" depart="1.45" departLane="free" departPos="random_free" departSpeed="max">
        <route edges="17 20 1" />
    </vehicle>
    <vehicle id="12" depart="1.58" departLane="free" departPos="random_free" departSpeed="max">
        <route edges="8 11 20 5" />
    </vehicle>
    <vehicle id="13" depart="1.71" departLane="free" departPos="random_free" departSpeed="max">
        <route edges="4 19 16" />
    </vehicle>
    <vehicle id="14" depart="1.85" departLane="free" departPos="random_free" departSpeed="max">
        <route edges="13 11 20 1" />
    </vehicle>
    <vehicle id="15" depart="1.98" departLane="free" departPos="random_free" departSpeed="max">
        <route edges="2 19 10 7" />
    </vehicle>
    <vehicle id="16" depart="2.11" departLane="free" departPos="random_free" departSpeed="max">
        <route edges="8 11 20 1" />
    </vehicle>
    <vType id="truck" length="7.50" minGap="4.50" maxSpeed="36.11" probability="0.80" speedFactor="normc(0.91,0.16,0.20,2.00)" vClass="truck" impatience="0.14" guiShape="truck" width="2.60" minGapLat="1.50" lcStrategic="1.67" lcCooperative="2.42" lcSpeedGain="17.37" lcKeepRight="0.86" lcSublane="2.00" lcImpatience="0.00" lcMaxSpeedLatStanding="0.00" lcSigma="0.14" accel="1.38" decel="3.28" sigma="0.55" />
    <vehicle id="17" depart="2.24" departLane="free" departPos="random_free" departSpeed="max">
        <route edges="13 11 20 1" />
    </vehicle>
    <vehicle id="18" depart="2.37" departLane="free" departPos="random_free" departSpeed="max">
        <route edges="13 11 20 5" />
    </vehicle>
    <vehicle id="19" depart="2.50" departLane="free" departPos="random_free" departSpeed="max">
        <route edges="4 19 10 7" />
    </vehicle>
    <vehicle id="20" depart="2.64" departLane="free" departPos="random_free" departSpeed="max">
        <route edges="17 20 1" />
    </vehicle>
    <vehicle id="22" depart="2.90" departLane="free" departPos="random_free" departSpeed="max">
        <route edges="13 11 20 1" />
    </vehicle>
    <vehicle id="25" depart="3.29" departLane="free" departPos="random_free" departSpeed="max">
        <route edges="17 20 1" />
    </vehicle>
    <vehicle id="26" depart="3.43" departLane="free" departPos="random_free" departSpeed="max">
        <route edges="2 19 10 7" />
    </vehicle>
    <vehicle id="27" depart="3.56" departLane="free" departPos="random_free" departSpeed="max">
        <route edges="8 11 20 1" />
    </vehicle>
    <vehicle id="28" depart="3.69" departLane="free" departPos="random_free" departSpeed="max">
        <route edges="13 11 20 1" />
    </vehicle>
    <vehicle id="29" depart="3.82" departLane="free" departPos="random_free" departSpeed="max">
        <route edges="2 19 16" />
    </vehicle>
    <vehicle id="30" depart="3.95" departLane="free" departPos="random_free" departSpeed="max">
        <route edges="4 19 10 14" />
    </vehicle>
    <vehicle id="31" depart="4.09" departLane="free" departPos="random_free" departSpeed="max">
        <route edges="8 11 20 5" />
    </vehicle>
    <vehicle id="32" depart="4.22" departLane="free" departPos="random_free" departSpeed="max">
        <route edges="17 10 7" />
    </vehicle>
    <vehicle id="35" depart="4.61" departLane="free" departPos="random_free" departSpeed="max">
        <route edges="4 19 16" />
    </vehicle>
    <vehicle id="36" depart="4.74" departLane="free" departPos="random_free" departSpeed="max">
        <route edges="17 20 5" />
    </vehicle>
    <vehicle id="37" depart="4.88" departLane="free" departPos="random_free" departSpeed="max">
        <route edges="4 1" />
    </vehicle>
    <vehicle id="38" depart="5.01" departLane="free" departPos="random_free" departSpeed="max">
        <route edges="2 19 16" />
    </vehicle>
    <vehicle id="egoVehicle39" depart="5.14" departLane="free" departPos="random_free" departSpeed="max">
        <route edges="17 20 5" />
    </vehicle>
    <vehicle id="40" depart="5.27" departLane="free" departPos="random_free" departSpeed="max">
        <route edges="17 10 7" />
    </vehicle>
    <vType id="bicycle" length="2.00" minGap="1.00" maxSpeed="6.94" probability="0.20" speedFactor="normc(0.94,0.17,0.20,2.00)" vClass="bicycle" impatience="0.20" guiShape="bicycle" width="0.68" minGapLat="1.50" lcStrategic="2.47" lcCooperative="1.74" lcSpeedGain="17.92" lcKeepRight="0.80" lcSublane="2.00" lcImpatience="0.00" lcMaxSpeedLatStanding="0.00" lcSigma="0.14" accel="1.17" decel="2.80" sigma="0.58" />
    <vehicle id="41" depart="5.40" departLane="free" departPos="random_free" departSpeed="max">
        <route edges="4 1" />
    </vehicle>
    <vehicle id="42" depart="5.54" departLane="free" departPos="random_free" departSpeed="max">
        <route edges="17 20 1" />
    </vehicle>
    <vehicle id="43" depart="5.67" departLane="free" departPos="random_free" departSpeed="max">
        <route edges="2 19 16" />
    </vehicle>
    <vehicle id="44" depart="5.80" departLane="free" departPos="random_free" departSpeed="max">
        <route edges="17 10 14" />
    </vehicle>
    <vehicle id="45" depart="5.93" departLane="free" departPos="random_free" departSpeed="max">
        <route edges="17 10 7" />
    </vehicle>
    <vehicle id="46" depart="6.06" departLane="free" departPos="random_free" departSpeed="max">
        <route edges="13 7" />
    </vehicle>
    <vehicle id="47" depart="6.19" departLane="free" departPos="random_free" departSpeed="max">
        <route edges="17 10 14" />
    </vehicle>
    <vehicle id="48" depart="6.33" departLane="free" departPos="random_free" departSpeed="max">
        <route edges="13 11 16" />
    </vehicle>
    <vehicle id="49" depart="6.46" departLane="free" departPos="random_free" departSpeed="max">
        <route edges="8 11 20 5" />
    </vehicle>
    <vehicle id="50" depart="6.59" departLane="free" departPos="random_free" departSpeed="max">
        <route edges="13 11 16" />
    </vehicle>
    <vehicle id="51" depart="6.72" departLane="free" departPos="random_free" departSpeed="max">
        <route edges="13 11 20 1" />
    </vehicle>
    <vehicle id="52" depart="6.85" departLane="free" departPos="random_free" departSpeed="max">
        <route edges="13 11 20 5" />
    </vehicle>
    <vType id="bus" length="12.40" minGap="2.50" maxSpeed="23.61" probability="0.30" speedFactor="normc(0.99,0.15,0.20,2.00)" vClass="bus" impatience="0.11" guiShape="bus" width="2.70" minGapLat="1.50" lcStrategic="4.12" lcCooperative="1.01" lcSpeedGain="6.41" lcKeepRight="0.82" lcSublane="2.00" lcImpatience="0.00" lcMaxSpeedLatStanding="0.00" lcSigma="0.13" accel="1.15" decel="4.10" sigma="0.54" />
    <vehicle id="53" depart="6.98" departLane="free" departPos="random_free" departSpeed="max">
        <route edges="17 10 7" />
    </vehicle>
    <vehicle id="55" depart="7.25" departLane="free" departPos="random_free" departSpeed="max">
        <route edges="13 7" />
    </vehicle>
    <vehicle id="56" depart="7.38" departLane="free" departPos="random_free" departSpeed="max">
        <route edges="2 19 10 7" />
    </vehicle>
    <vehicle id="57" depart="7.51" departLane="free" departPos="random_free" departSpeed="max">
        <route edges="17 20 5" />
    </vehicle>
    <vehicle id="58" depart="7.64" departLane="free" departPos="random_free" departSpeed="max">
        <route edges="8 11 16" />
    </vehicle>
    <vehicle id="59" depart="7.78" departLane="free" departPos="random_free" departSpeed="max">
        <route edges="8 11 20 5" />
    </vehicle>
    <vehicle id="60" depart="7.91" departLane="free" departPos="random_free" departSpeed="max">
        <route edges="17 10 7" />
    </vehicle>
    <vehicle id="63" depart="8.30" departLane="free" departPos="random_free" departSpeed="max">
        <route edges="2 19 16" />
    </vehicle>
    <vehicle id="65" depart="8.57" departLane="free" departPos="random_free" departSpeed="max">
        <route edges="17 10 7" />
    </vehicle>
    <vehicle id="66" depart="8.70" departLane="free" departPos="random_free" departSpeed="max">
        <route edges="4 19 16" />
    </vehicle>
    <vehicle id="67" depart="8.83" departLane="free" departPos="random_free" departSpeed="max">
        <route edges="13 7" />
    </vehicle>
    <vehicle id="69" depart="9.09" departLane="free" departPos="random_free" departSpeed="max">
        <route edges="2 19 10 7" />
    </vehicle>
    <vehicle id="70" depart="9.23" departLane="free" departPos="random_free" departSpeed="max">
        <route edges="2 5" />
    </vehicle>
    <vehicle id="71" depart="9.36" departLane="free" departPos="random_free" departSpeed="max">
        <route edges="17 20 1" />
    </vehicle>
    <vehicle id="72" depart="9.49" departLane="free" departPos="random_free" departSpeed="max">
        <route edges="13 11 20 1" />
    </vehicle>
    <vehicle id="73" depart="9.62" departLane="free" departPos="random_free" departSpeed="max">
        <route edges="4 1" />
    </vehicle>
    <vehicle id="74" depart="9.75" departLane="free" departPos="random_free" departSpeed="max">
        <route edges="13 7" />
    </vehicle>
    <vehicle id="75" depart="9.88" departLane="free" departPos="random_free" departSpeed="max">
        <route edges="4 1" />
    </vehicle>
    <vehicle id="76" depart="10.02" departLane="free" departPos="random_free" departSpeed="max">
        <route edges="13 11 20 5" />
    </vehicle>
    <vehicle id="77" depart="10.15" departLane="free" departPos="random_free" departSpeed="max">
        <route edges="8 11 20 5" />
    </vehicle>
    <vehicle id="78" depart="10.28" departLane="free" departPos="random_free" departSpeed="max">
        <route edges="4 19 16" />
    </vehicle>
    <vehicle id="79" depart="10.41" departLane="free" departPos="random_free" departSpeed="max">
        <route edges="17 10 7" />
    </vehicle>
    <vehicle id="80" depart="10.54" departLane="free" departPos="random_free" departSpeed="max">
        <route edges="8 11 20 5" />
    </vehicle>
    <vehicle id="81" depart="10.68" departLane="free" departPos="random_free" departSpeed="max">
        <route edges="13 7" />
    </vehicle>
    <vehicle id="82" depart="10.81" departLane="free" departPos="random_free" departSpeed="max">
        <route edges="2 19 10 7" />
    </vehicle>
    <vehicle id="83" depart="10.94" departLane="free" departPos="random_free" departSpeed="max">
        <route edges="17 20 1" />
    </vehicle>
    <vehicle id="84" depart="11.07" departLane="free" departPos="random_free" departSpeed="max">
        <route edges="8 11 20 1" />
    </vehicle>
    <vehicle id="85" depart="11.20" departLane="free" departPos="random_free" departSpeed="max">
        <route edges="8 11 16" />
    </vehicle>
    <vehicle id="87" depart="11.47" departLane="free" departPos="random_free" departSpeed="max">
        <route edges="8 11 20 1" />
    </vehicle>
    <vehicle id="88" depart="11.60" departLane="free" departPos="random_free" departSpeed="max">
        <route edges="13 11 16" />
    </vehicle>
    <vehicle id="89" depart="11.73" departLane="free" departPos="random_free" departSpeed="max">
        <route edges="13 11 20 5" />
    </vehicle>
    <vehicle id="90" depart="11.86" departLane="free" departPos="random_free" departSpeed="max">
        <route edges="8 11 20 5" />
    </vehicle>
    <vehicle id="91" depart="11.99" departLane="free" departPos="random_free" departSpeed="max">
        <route edges="17 20 5" />
    </vehicle>
    <vehicle id="92" depart="12.12" departLane="free" departPos="random_free" departSpeed="max">
        <route edges="8 11 16" />
    </vehicle>
    <vehicle id="96" depart="12.65" departLane="free" departPos="random_free" departSpeed="max">
        <route edges="4 19 10 14" />
    </vehicle>
    <vehicle id="97" depart="12.78" departLane="free" departPos="random_free" departSpeed="max">
        <route edges="4 19 16" />
    </vehicle>
    <vehicle id="98" depart="12.92" departLane="free" departPos="random_free" departSpeed="max">
        <route edges="2 19 10 7" />
    </vehicle>
    <vehicle id="100" depart="13.18" departLane="free" departPos="random_free" departSpeed="max">
        <route edges="13 11 20 5" />
    </vehicle>
    <vehicle id="101" depart="13.31" departLane="free" departPos="random_free" departSpeed="max">
        <route edges="17 20 5" />
    </vehicle>
    <vehicle id="103" depart="13.57" departLane="free" departPos="random_free" departSpeed="max">
        <route edges="4 1" />
    </vehicle>
    <vehicle id="104" depart="13.71" departLane="free" departPos="random_free" departSpeed="max">
        <route edges="4 19 10 7" />
    </vehicle>
    <vehicle id="106" depart="13.97" departLane="free" departPos="random_free" departSpeed="max">
        <route edges="8 11 16" />
    </vehicle>
    <vehicle id="107" depart="14.10" departLane="free" departPos="random_free" departSpeed="max">
        <route edges="4 1" />
    </vehicle>
    <vehicle id="108" depart="14.23" departLane="free" departPos="random_free" departSpeed="max">
        <route edges="2 5" />
    </vehicle>
    <vehicle id="109" depart="14.37" departLane="free" departPos="random_free" departSpeed="max">
        <route edges="8 11 16" />
    </vehicle>
    <vehicle id="110" depart="14.50" departLane="free" departPos="random_free" departSpeed="max">
        <route edges="17 10 7" />
    </vehicle>
    <vehicle id="112" depart="14.76" departLane="free" departPos="random_free" departSpeed="max">
        <route edges="13 7" />
    </vehicle>
    <vehicle id="113" depart="14.89" departLane="free" departPos="random_free" departSpeed="max">
        <route edges="8 11 20 1" />
    </vehicle>
</routes>