<net xmlns:xsi="http://www.w3.org/2001/XMLSchema-instance" version="1.3" junctionCornerDetail="5" junctionLinkDetail="20" limitTurnSpeed="5.50" xsi:noNamespaceSchemaLocation="http://sumo.dlr.de/xsd/net_file.xsd">

    <location netOffset="0.00,0.00" convBoundary="-297.83,-298.84,308.63,297.71" origBoundary="-297.83,-298.84,308.63,297.71" projParameter="!"/>

    <type id="highway.bridleway" priority="1" speed="2.78" allow="pedestrian" oneway="1"/>
    <type id="highway.bus_guideway" priority="1" speed="27.78" allow="bus" oneway="1"/>
    <type id="highway.cycleway" priority="1" speed="8.33" allow="bicycle"/>
    <type id="highway.footway" priority="1" speed="2.78" allow="pedestrian" oneway="1"/>
    <type id="highway.ford" priority="1" speed="2.78" allow="army"/>
    <type id="highway.living_street" priority="2" speed="2.78" disallow="tram rail_urban rail rail_electric ship"/>
    <type id="highway.motorway" priority="14" speed="39.44" disallow="pedestrian moped bicycle tram rail_urban rail rail_electric ship" oneway="1"/>
    <type id="highway.motorway_link" priority="9" speed="22.22" disallow="pedestrian moped bicycle tram rail_urban rail rail_electric ship" oneway="1"/>
    <type id="highway.path" priority="1" speed="2.78" allow="pedestrian bicycle"/>
    <type id="highway.pedestrian" priority="1" speed="2.78" allow="pedestrian" oneway="1"/>
    <type id="highway.primary" priority="12" speed="27.78" disallow="pedestrian tram rail_urban rail rail_electric ship"/>
    <type id="highway.primary_link" priority="7" speed="22.22" disallow="pedestrian tram rail_urban rail rail_electric ship"/>
    <type id="highway.raceway" priority="15" speed="83.33" allow="vip"/>
    <type id="highway.residential" priority="3" speed="13.89" disallow="pedestrian tram rail_urban rail rail_electric ship"/>
    <type id="highway.residential_speed_8.33" priority="3" speed="8.33" disallow="pedestrian tram rail_urban rail rail_electric ship"/>
    <type id="highway.secondary" priority="11" speed="27.78" disallow="pedestrian tram rail_urban rail rail_electric ship"/>
    <type id="highway.secondary_link" priority="6" speed="22.22" disallow="pedestrian tram rail_urban rail rail_electric ship"/>
    <type id="highway.service" priority="1" speed="5.56" allow="pedestrian delivery bicycle"/>
    <type id="highway.stairs" priority="1" speed="1.39" allow="pedestrian" oneway="1"/>
    <type id="highway.step" priority="1" speed="1.39" allow="pedestrian" oneway="1"/>
    <type id="highway.steps" priority="1" speed="1.39" allow="pedestrian" oneway="1"/>
    <type id="highway.tertiary" priority="10" speed="22.22" disallow="pedestrian tram rail_urban rail rail_electric ship"/>
    <type id="highway.tertiary_link" priority="5" speed="22.22" disallow="pedestrian tram rail_urban rail rail_electric ship"/>
    <type id="highway.track" priority="1" speed="5.56" allow="pedestrian motorcycle moped bicycle"/>
    <type id="highway.trunk" priority="13" speed="27.78" disallow="pedestrian bicycle tram rail_urban rail rail_electric ship"/>
    <type id="highway.trunk_link" priority="8" speed="22.22" disallow="pedestrian bicycle tram rail_urban rail rail_electric ship"/>
    <type id="highway.unclassified" priority="4" speed="13.89" disallow="tram rail_urban rail rail_electric ship"/>
    <type id="highway.unsurfaced" priority="1" speed="8.33" disallow="tram rail_urban rail rail_electric ship"/>
    <type id="railway.highspeed" priority="21" speed="69.44" allow="rail" oneway="1"/>
    <type id="railway.light_rail" priority="19" speed="27.78" allow="rail_urban" oneway="1"/>
    <type id="railway.preserved" priority="16" speed="27.78" allow="rail" oneway="1"/>
    <type id="railway.rail" priority="20" speed="44.44" allow="rail" oneway="1"/>
    <type id="railway.subway" priority="18" speed="27.78" allow="rail_urban" oneway="1"/>
    <type id="railway.tram" priority="17" speed="13.89" allow="tram" oneway="1"/>

    <edge id=":29_0" function="internal">
        <lane id=":29_0_0" index="0" disallow="pedestrian tram rail_urban rail rail_electric ship" speed="7.11" length="10.56" width="3.50" shape="-181.42,-22.80 -181.55,-22.98 -181.67,-23.15 -181.80,-23.32 -181.93,-23.49 -182.07,-23.66 -182.21,-23.83 -182.35,-23.99 -182.49,-24.15 -182.63,-24.31 -182.78,-24.47 -182.93,-24.63 -183.08,-24.78 -183.24,-24.93 -183.40,-25.07 -183.57,-25.20 -183.73,-25.34 -183.90,-25.47 -184.08,-25.60 -184.26,-25.72 -184.44,-25.83 -184.63,-25.94 -184.82,-26.04 -185.01,-26.13 -185.21,-26.21 -185.42,-26.28 -185.62,-26.35 -185.83,-26.40 -186.04,-26.44 -186.26,-26.48 -186.47,-26.50 -186.69,-26.51 -186.90,-26.51 -187.12,-26.50 -187.33,-26.48 -187.54,-26.45 -187.75,-26.40 -187.96,-26.36 -188.17,-26.30 -188.38,-26.24 -188.58,-26.16 -188.78,-26.08 -188.98,-26.00 -189.18,-25.91 -189.37,-25.81 -189.56,-25.71 -189.75,-25.60 -189.94,-25.50 -190.12,-25.39 -190.30,-25.27"/>
    </edge>
    <edge id=":29_1" function="internal">
        <lane id=":29_1_0" index="0" disallow="pedestrian tram rail_urban rail rail_electric ship" speed="8.33" length="16.53" width="3.50" shape="-181.42,-22.80 -181.61,-23.08 -181.79,-23.36 -181.97,-23.65 -182.14,-23.94 -182.31,-24.23 -182.47,-24.53 -182.62,-24.83 -182.77,-25.14 -182.90,-25.44 -183.03,-25.76 -183.15,-26.07 -183.26,-26.39 -183.36,-26.71 -183.45,-27.04 -183.52,-27.37 -183.59,-27.70 -183.64,-28.03 -183.68,-28.37 -183.70,-28.70 -183.71,-29.04 -183.71,-29.38 -183.69,-29.71 -183.66,-30.05 -183.61,-30.38 -183.55,-30.72 -183.47,-31.04 -183.38,-31.37 -183.27,-31.69 -183.15,-32.00 -183.01,-32.31 -182.87,-32.62 -182.71,-32.91 -182.53,-33.20 -182.35,-33.49 -182.16,-33.76 -181.96,-34.03 -181.75,-34.30 -181.53,-34.55 -181.30,-34.80 -181.07,-35.04 -180.82,-35.28 -180.58,-35.51 -180.32,-35.73 -180.06,-35.95 -179.80,-36.16 -179.53,-36.36 -179.26,-36.56 -178.98,-36.75 -178.70,-36.94"/>
    </edge>
    <edge id=":29_2" function="internal">
        <lane id=":29_2_0" index="0" disallow="pedestrian tram rail_urban rail rail_electric ship" speed="7.02" length="10.85" width="3.50" shape="-176.77,-34.03 -176.95,-33.91 -177.13,-33.78 -177.31,-33.65 -177.49,-33.52 -177.66,-33.38 -177.83,-33.24 -178.00,-33.09 -178.16,-32.95 -178.33,-32.79 -178.48,-32.64 -178.63,-32.48 -178.78,-32.31 -178.92,-32.14 -179.06,-31.97 -179.19,-31.79 -179.32,-31.61 -179.43,-31.42 -179.54,-31.23 -179.65,-31.03 -179.74,-30.83 -179.82,-30.63 -179.90,-30.42 -179.96,-30.21 -180.01,-29.99 -180.05,-29.77 -180.08,-29.55 -180.11,-29.33 -180.12,-29.11 -180.12,-28.89 -180.11,-28.67 -180.09,-28.45 -180.06,-28.23 -180.02,-28.01 -179.97,-27.79 -179.91,-27.58 -179.85,-27.37 -179.78,-27.15 -179.71,-26.95 -179.62,-26.74 -179.54,-26.54 -179.45,-26.34 -179.35,-26.14 -179.25,-25.94 -179.14,-25.75 -179.03,-25.56 -178.91,-25.37 -178.80,-25.18 -178.68,-24.99 -178.55,-24.81"/>
    </edge>
    <edge id=":29_3" function="internal">
        <lane id=":29_3_0" index="0" disallow="pedestrian tram rail_urban rail rail_electric ship" speed="8.33" length="16.12" width="3.50" shape="-176.77,-34.03 -183.51,-29.67 -190.30,-25.27"/>
    </edge>
    <edge id=":29_4" function="internal">
        <lane id=":29_4_0" index="0" disallow="pedestrian tram rail_urban rail rail_electric ship" speed="22.22" length="16.06" width="3.50" shape="-192.19,-28.22 -185.42,-32.60 -178.70,-36.94"/>
    </edge>
    <edge id=":29_5" function="internal">
        <lane id=":29_5_0" index="0" disallow="pedestrian tram rail_urban rail rail_electric ship" speed="8.60" length="15.98" width="3.50" shape="-192.19,-28.22 -191.88,-28.40 -191.60,-28.56 -191.31,-28.71 -191.03,-28.87 -190.74,-29.02 -190.45,-29.18 -190.16,-29.31 -189.85,-29.43 -189.55,-29.54 -189.24,-29.65 -188.93,-29.75 -188.62,-29.83 -188.30,-29.90 -187.98,-29.96 -187.66,-30.03 -187.34,-30.05 -187.01,-30.07 -186.69,-30.08 -186.36,-30.08 -186.04,-30.06 -185.71,-30.01 -185.39,-29.96 -185.07,-29.90 -184.76,-29.83 -184.45,-29.73 -184.14,-29.62 -183.84,-29.50 -183.54,-29.38 -183.24,-29.24 -182.96,-29.08 -182.68,-28.91 -182.41,-28.73 -182.14,-28.56 -181.88,-28.35 -181.63,-28.15 -181.38,-27.94 -181.13,-27.74 -180.88,-27.52 -180.64,-27.30 -180.42,-27.07 -180.20,-26.83 -179.98,-26.58 -179.76,-26.34 -179.55,-26.10 -179.34,-25.85 -179.14,-25.59 -178.94,-25.33 -178.75,-25.07 -178.55,-24.81"/>
    </edge>
    <edge id=":30_0" function="internal">
        <lane id=":30_0_0" index="0" disallow="pedestrian tram rail_urban rail rail_electric ship" speed="7.31" length="10.55" width="3.50" shape="-7.51,-22.47 -7.63,-22.66 -7.75,-22.84 -7.87,-23.02 -7.99,-23.20 -8.11,-23.37 -8.24,-23.54 -8.37,-23.71 -8.51,-23.88 -8.64,-24.04 -8.78,-24.21 -8.93,-24.37 -9.07,-24.53 -9.23,-24.68 -9.39,-24.82 -9.55,-24.96 -9.71,-25.10 -9.88,-25.23 -10.05,-25.36 -10.23,-25.49 -10.41,-25.60 -10.60,-25.71 -10.79,-25.81 -10.98,-25.91 -11.18,-25.99 -11.38,-26.06 -11.58,-26.13 -11.79,-26.19 -12.00,-26.23 -12.21,-26.27 -12.43,-26.30 -12.64,-26.32 -12.86,-26.33 -13.07,-26.33 -13.29,-26.32 -13.50,-26.31 -13.71,-26.29 -13.93,-26.25 -14.14,-26.21 -14.35,-26.17 -14.56,-26.12 -14.77,-26.07 -14.97,-26.01 -15.18,-25.95 -15.38,-25.87 -15.58,-25.80 -15.78,-25.72 -15.98,-25.64 -16.18,-25.56 -16.38,-25.47"/>
    </edge>
    <edge id=":30_1" function="internal">
        <lane id=":30_1_0" index="0" disallow="pedestrian tram rail_urban rail rail_electric ship" speed="8.43" length="16.49" width="3.50" shape="-7.51,-22.47 -7.68,-22.77 -7.84,-23.07 -7.99,-23.36 -8.15,-23.66 -8.28,-23.97 -8.40,-24.29 -8.52,-24.60 -8.64,-24.92 -8.75,-25.23 -8.86,-25.55 -8.94,-25.88 -9.00,-26.21 -9.06,-26.54 -9.11,-26.87 -9.15,-27.20 -9.16,-27.54 -9.15,-27.88 -9.14,-28.21 -9.13,-28.55 -9.09,-28.88 -9.01,-29.21 -8.93,-29.54 -8.85,-29.86 -8.76,-30.19 -8.63,-30.50 -8.49,-30.80 -8.35,-31.11 -8.21,-31.41 -8.04,-31.70 -7.85,-31.98 -7.65,-32.25 -7.45,-32.52 -7.25,-32.79 -7.02,-33.04 -6.79,-33.28 -6.55,-33.52 -6.32,-33.76 -6.06,-33.98 -5.80,-34.19 -5.53,-34.39 -5.26,-34.60 -5.00,-34.80 -4.73,-35.00 -4.45,-35.19 -4.16,-35.36 -3.87,-35.54 -3.58,-35.71 -3.29,-35.88 -3.00,-36.05"/>
    </edge>
    <edge id=":30_2" function="internal">
        <lane id=":30_2_0" index="0" disallow="pedestrian tram rail_urban rail rail_electric ship" speed="6.92" length="10.72" width="3.50" shape="-1.34,-32.97 -1.53,-32.86 -1.72,-32.75 -1.91,-32.64 -2.10,-32.53 -2.28,-32.42 -2.47,-32.30 -2.65,-32.17 -2.83,-32.05 -3.00,-31.92 -3.18,-31.79 -3.35,-31.65 -3.52,-31.52 -3.68,-31.37 -3.84,-31.22 -4.00,-31.07 -4.15,-30.91 -4.30,-30.75 -4.44,-30.58 -4.57,-30.41 -4.71,-30.24 -4.83,-30.06 -4.94,-29.87 -5.05,-29.68 -5.15,-29.48 -5.24,-29.29 -5.32,-29.08 -5.39,-28.88 -5.45,-28.67 -5.50,-28.45 -5.55,-28.24 -5.57,-28.02 -5.58,-27.80 -5.59,-27.58 -5.58,-27.36 -5.57,-27.14 -5.54,-26.93 -5.50,-26.71 -5.46,-26.50 -5.41,-26.28 -5.34,-26.08 -5.27,-25.87 -5.19,-25.66 -5.11,-25.46 -5.02,-25.26 -4.94,-25.06 -4.84,-24.86 -4.73,-24.67 -4.63,-24.48 -4.52,-24.29"/>
    </edge>
    <edge id=":30_3" function="internal">
        <lane id=":30_3_0" index="0" disallow="pedestrian tram rail_urban rail rail_electric ship" speed="8.33" length="16.81" width="3.50" shape="-1.34,-32.97 -11.32,-27.88 -16.38,-25.47"/>
    </edge>
    <edge id=":30_4" function="internal">
        <lane id=":30_4_0" index="0" disallow="pedestrian tram rail_urban rail rail_electric ship" speed="8.33" length="16.58" width="3.50" shape="-17.84,-28.65 -12.85,-31.02 -3.00,-36.05"/>
    </edge>
    <edge id=":30_5" function="internal">
        <lane id=":30_5_0" index="0" disallow="pedestrian tram rail_urban rail rail_electric ship" speed="8.33" length="15.67" width="3.50" shape="-17.84,-28.65 -17.51,-28.78 -17.22,-28.90 -16.92,-29.01 -16.62,-29.12 -16.32,-29.24 -16.02,-29.35 -15.72,-29.44 -15.40,-29.51 -15.09,-29.57 -14.78,-29.64 -14.46,-29.70 -14.15,-29.76 -13.84,-29.81 -13.52,-29.84 -13.20,-29.85 -12.88,-29.86 -12.56,-29.86 -12.24,-29.86 -11.93,-29.81 -11.61,-29.76 -11.30,-29.71 -10.98,-29.65 -10.67,-29.57 -10.37,-29.47 -10.07,-29.36 -9.77,-29.25 -9.48,-29.13 -9.19,-28.99 -8.92,-28.83 -8.64,-28.67 -8.37,-28.50 -8.11,-28.32 -7.86,-28.12 -7.61,-27.91 -7.37,-27.71 -7.13,-27.50 -6.89,-27.29 -6.66,-27.07 -6.44,-26.84 -6.23,-26.59 -6.03,-26.35 -5.82,-26.10 -5.62,-25.86 -5.42,-25.61 -5.23,-25.35 -5.05,-25.09 -4.87,-24.82 -4.70,-24.56 -4.52,-24.29"/>
    </edge>
    <edge id=":31_0" function="internal">
        <lane id=":31_0_0" index="0" disallow="pedestrian tram rail_urban rail rail_electric ship" speed="8.33" length="16.08" width="3.50" shape="-134.57,46.64 -141.73,35.68 -143.42,33.21"/>
    </edge>
    <edge id=":31_1" function="internal">
        <lane id=":31_1_0" index="0" disallow="pedestrian tram rail_urban rail rail_electric ship" speed="8.33" length="16.87" width="3.50" shape="-134.57,46.64 -134.76,46.34 -134.93,46.04 -135.10,45.74 -135.26,45.43 -135.41,45.13 -135.56,44.81 -135.70,44.50 -135.82,44.18 -135.94,43.86 -136.05,43.53 -136.15,43.20 -136.24,42.87 -136.32,42.53 -136.38,42.19 -136.44,41.85 -136.48,41.51 -136.50,41.17 -136.52,40.82 -136.51,40.48 -136.50,40.14 -136.46,39.79 -136.42,39.45 -136.36,39.11 -136.28,38.78 -136.19,38.45 -136.09,38.12 -135.98,37.79 -135.85,37.47 -135.71,37.16 -135.55,36.85 -135.39,36.55 -135.21,36.26 -135.02,35.97 -134.82,35.69 -134.62,35.41 -134.40,35.14 -134.18,34.88 -133.95,34.62 -133.71,34.37 -133.47,34.13 -133.22,33.89 -132.96,33.66 -132.70,33.44 -132.43,33.22 -132.16,33.01 -131.89,32.80 -131.61,32.60 -131.33,32.40 -131.05,32.21"/>
    </edge>
    <edge id=":31_2" function="internal">
        <lane id=":31_2_0" index="0" disallow="pedestrian tram rail_urban rail rail_electric ship" speed="7.32" length="11.39" width="3.50" shape="-129.09,35.11 -129.31,35.26 -129.50,35.39 -129.69,35.53 -129.87,35.67 -130.06,35.81 -130.24,35.95 -130.41,36.10 -130.59,36.25 -130.76,36.41 -130.93,36.57 -131.09,36.73 -131.25,36.90 -131.41,37.07 -131.56,37.25 -131.70,37.43 -131.84,37.62 -131.97,37.81 -132.10,38.00 -132.22,38.20 -132.33,38.41 -132.43,38.61 -132.52,38.83 -132.61,39.04 -132.68,39.26 -132.75,39.48 -132.81,39.71 -132.85,39.93 -132.89,40.16 -132.92,40.39 -132.93,40.63 -132.94,40.86 -132.93,41.09 -132.91,41.32 -132.89,41.55 -132.85,41.78 -132.80,42.01 -132.75,42.23 -132.69,42.46 -132.62,42.68 -132.55,42.90 -132.46,43.11 -132.38,43.33 -132.28,43.54 -132.18,43.75 -132.08,43.96 -131.97,44.16 -131.86,44.36 -131.74,44.56 -131.62,44.76"/>
    </edge>
    <edge id=":31_3" function="internal">
        <lane id=":31_3_0" index="0" disallow="pedestrian tram rail_urban rail rail_electric ship" speed="8.33" length="16.48" width="3.50" shape="-129.09,35.11 -129.41,35.30 -129.70,35.46 -129.99,35.63 -130.28,35.80 -130.58,35.96 -130.87,36.13 -131.16,36.29 -131.46,36.45 -131.76,36.59 -132.07,36.71 -132.39,36.83 -132.70,36.95 -133.02,37.07 -133.33,37.19 -133.65,37.28 -133.98,37.36 -134.30,37.44 -134.63,37.51 -134.96,37.57 -135.30,37.60 -135.63,37.62 -135.97,37.63 -136.30,37.65 -136.64,37.63 -136.97,37.59 -137.30,37.54 -137.63,37.50 -137.96,37.43 -138.28,37.33 -138.60,37.22 -138.92,37.11 -139.23,36.98 -139.53,36.83 -139.82,36.67 -140.11,36.50 -140.39,36.32 -140.67,36.13 -140.93,35.92 -141.19,35.71 -141.44,35.49 -141.69,35.26 -141.92,35.02 -142.14,34.77 -142.37,34.52 -142.59,34.26 -142.81,34.01 -143.03,33.75 -143.22,33.48 -143.42,33.21"/>
    </edge>
    <edge id=":31_4" function="internal">
        <lane id=":31_4_0" index="0" disallow="pedestrian tram rail_urban rail rail_electric ship" speed="7.13" length="10.95" width="3.50" shape="-140.54,31.22 -140.41,31.40 -140.28,31.58 -140.14,31.76 -140.00,31.93 -139.85,32.10 -139.70,32.27 -139.55,32.43 -139.39,32.59 -139.24,32.75 -139.07,32.90 -138.89,33.04 -138.72,33.18 -138.53,33.31 -138.35,33.43 -138.15,33.54 -137.95,33.64 -137.75,33.73 -137.54,33.81 -137.33,33.88 -137.11,33.94 -136.89,33.99 -136.67,34.03 -136.45,34.05 -136.23,34.06 -136.00,34.07 -135.78,34.06 -135.56,34.05 -135.34,34.02 -135.11,33.99 -134.89,33.95 -134.68,33.90 -134.46,33.84 -134.25,33.78 -134.03,33.71 -133.82,33.64 -133.61,33.56 -133.41,33.47 -133.20,33.39 -133.00,33.30 -132.79,33.21 -132.59,33.11 -132.39,33.00 -132.20,32.89 -132.00,32.78 -131.81,32.67 -131.62,32.56 -131.43,32.44 -131.24,32.33 -131.05,32.21"/>
    </edge>
    <edge id=":31_5" function="internal">
        <lane id=":31_5_0" index="0" disallow="pedestrian tram rail_urban rail rail_electric ship" speed="8.33" length="16.21" width="3.50" shape="-140.54,31.22 -138.82,33.74 -131.62,44.76"/>
    </edge>

    <edge id="1" from="29" to="2" priority="3" type="highway.residential_speed_8.33" spreadType="center" length="504.65" shape="-183.91,-30.17 252.58,-298.84">
        <lane id="1_0" index="0" disallow="pedestrian tram rail_urban rail rail_electric ship" speed="8.33" length="504.65" width="3.50" customShape="1" shape="-178.70,-36.94 -135.02,-65.38 -118.55,-75.91 67.01,-189.91 77.89,-196.25 139.13,-230.80 158.26,-241.77 252.58,-298.84"/>
    </edge>
    <edge id="10" from="31" to="30" priority="3" type="highway.residential_speed_8.33" spreadType="center" length="128.90" shape="-135.88,35.65 -9.23,-29.88">
        <lane id="10_0" index="0" disallow="pedestrian tram rail_urban rail rail_electric ship" speed="8.33" length="128.90" width="3.50" customShape="1" shape="-131.05,32.21 -111.09,18.77 -99.29,11.05 -89.82,5.28 -81.41,0.58 -74.15,-3.00 -59.93,-9.29 -17.81,-28.67"/>
    </edge>
    <edge id="11" from="30" to="31" priority="3" type="highway.residential_speed_8.33" spreadType="center" length="128.32" shape="-7.62,-26.77 -134.27,38.76">
        <lane id="11_0" index="0" disallow="pedestrian tram rail_urban rail rail_electric ship" speed="8.33" length="128.32" width="3.50" customShape="1" shape="-16.38,-25.47 -58.50,-6.09 -72.67,0.17 -79.78,3.67 -88.05,8.30 -97.42,14.01 -109.15,21.68 -129.12,35.13"/>
    </edge>
    <edge id="13" from="17" to="30" priority="3" type="highway.residential" spreadType="center" length="292.09" shape="139.87,229.36 -9.95,-27.45">
        <lane id="13_0" index="0" disallow="pedestrian tram rail_urban rail rail_electric ship" speed="36.11" length="292.09" width="3.50" customShape="1" shape="139.87,229.36 128.93,204.52 124.46,195.02 120.07,186.59 114.18,176.13 106.95,164.13 84.85,129.36 -7.52,-22.48"/>
    </edge>
    <edge id="14" from="30" to="20" priority="3" type="highway.residential_speed_8.33" spreadType="center" length="292.51" shape="-6.92,-29.21 143.06,227.93">
        <lane id="14_0" index="0" disallow="pedestrian tram rail_urban rail rail_electric ship" speed="8.33" length="292.51" width="3.50" customShape="1" shape="-4.52,-24.29 87.82,127.51 109.93,162.28 117.21,174.37 123.15,184.92 127.59,193.47 132.12,203.07 143.06,227.93"/>
    </edge>
    <edge id="16" from="31" to="22" priority="3" type="highway.residential_speed_8.33" spreadType="center" length="298.33" shape="-133.57,36.27 26.72,296.94">
        <lane id="16_0" index="0" disallow="pedestrian tram rail_urban rail rail_electric ship" speed="8.33" length="298.33" width="3.50" customShape="1" shape="-131.62,44.76 -82.23,122.45 -68.74,143.70 -51.50,172.11 -38.63,193.22 -32.33,202.87 -24.59,213.95 -8.21,236.18 0.92,248.84 7.43,258.46 12.80,267.02 17.34,274.92 21.32,282.56 24.96,290.37 25.79,292.59 26.72,296.94"/>
    </edge>
    <edge id="17" from="23" to="31" priority="3" type="highway.residential_speed_8.33" spreadType="center" length="297.13" shape="23.30,297.71 -136.55,38.10">
        <lane id="17_0" index="0" disallow="pedestrian tram rail_urban rail rail_electric ship" speed="8.33" length="297.13" width="3.51" customShape="1" shape="23.30,297.71 22.43,293.58 21.75,291.75 18.18,284.11 14.27,276.61 9.80,268.83 4.50,260.37 -1.95,250.85 -11.04,238.24 -27.43,215.99 -35.23,204.83 -41.59,195.09 -54.49,173.93 -71.71,145.54 -85.18,124.33 -134.58,46.63"/>
    </edge>
    <edge id="19" from="29" to="31" priority="3" type="highway.residential_speed_8.33" spreadType="center" length="67.76" shape="-181.57,-29.71 -133.62,36.19">
        <lane id="19_0" index="0" disallow="pedestrian tram rail_urban rail rail_electric ship" speed="8.33" length="67.76" width="3.50" customShape="1" shape="-178.55,-24.81 -169.34,-11.61 -157.64,5.40 -148.20,19.82 -140.51,31.26"/>
    </edge>
    <edge id="2" from="3" to="29" priority="3" type="highway.residential_speed_8.33" spreadType="center" length="504.55" shape="254.40,-295.84 -182.07,-27.19">
        <lane id="2_0" index="0" disallow="pedestrian tram rail_urban rail rail_electric ship" speed="8.33" length="504.55" width="3.50" customShape="1" shape="254.40,-295.84 160.03,-238.75 140.85,-227.75 79.64,-193.22 68.80,-186.90 -116.68,-72.95 -133.12,-62.44 -176.80,-34.01"/>
    </edge>
    <edge id="20" from="31" to="29" priority="3" type="highway.residential_speed_8.33" spreadType="center" length="67.70" shape="-136.45,38.25 -184.40,-27.65">
        <lane id="20_0" index="0" disallow="pedestrian tram rail_urban rail rail_electric ship" speed="8.33" length="67.70" width="3.50" customShape="1" shape="-143.42,33.21 -151.12,21.74 -160.54,7.36 -172.21,-9.62 -181.42,-22.81"/>
    </edge>
    <edge id="4" from="5" to="29" priority="3" type="highway.residential" spreadType="center" length="124.21" shape="-297.83,37.04 -183.85,-30.20">
        <lane id="4_0" index="0" disallow="pedestrian tram rail_urban rail rail_electric ship" speed="36.11" length="124.21" width="3.50" customShape="1" shape="-297.83,37.04 -228.22,-5.46 -212.03,-15.51 -192.16,-28.24"/>
    </edge>
    <edge id="5" from="29" to="8" priority="3" type="highway.residential_speed_8.33" spreadType="center" length="124.24" shape="-182.08,-27.19 -296.00,40.02">
        <lane id="5_0" index="0" disallow="pedestrian tram rail_urban rail rail_electric ship" speed="8.33" length="124.24" width="3.50" customShape="1" shape="-190.30,-25.27 -210.17,-12.55 -226.39,-2.47 -296.00,40.02"/>
    </edge>
    <edge id="7" from="30" to="10" priority="3" type="highway.residential_speed_8.33" spreadType="center" length="351.28" shape="-9.27,-29.86 306.99,-201.25">
        <lane id="7_0" index="0" disallow="pedestrian tram rail_urban rail rail_electric ship" speed="8.33" length="351.28" width="3.50" customShape="1" shape="-3.00,-36.05 64.53,-71.93 78.91,-79.48 93.16,-87.16 113.67,-99.04 126.93,-106.30 153.55,-120.19 306.99,-201.25"/>
    </edge>
    <edge id="8" from="11" to="30" priority="3" type="highway.residential_speed_8.33" spreadType="center" length="351.28" shape="308.63,-198.15 -7.60,-26.78">
        <lane id="8_0" index="0" disallow="pedestrian tram rail_urban rail rail_electric ship" speed="8.33" length="351.28" width="3.50" customShape="1" shape="308.63,-198.15 155.17,-117.09 128.58,-103.21 115.40,-95.99 94.86,-84.10 80.54,-76.39 66.17,-68.83 -1.36,-32.96"/>
    </edge>

    <junction id="10" type="dead_end" x="306.99" y="-201.25" incLanes="7_0" intLanes="" shape="306.18,-202.80 307.81,-199.70"/>
    <junction id="11" type="dead_end" x="308.63" y="-198.15" incLanes="" intLanes="" shape="307.81,-199.70 309.45,-196.61"/>
    <junction id="17" type="dead_end" x="139.87" y="229.36" incLanes="" intLanes="" shape="141.47,228.65 138.27,230.06"/>
    <junction id="2" type="dead_end" x="252.58" y="-298.84" incLanes="1_0" intLanes="" shape="251.68,-300.34 253.49,-297.34"/>
    <junction id="20" type="dead_end" x="143.06" y="227.93" incLanes="14_0" intLanes="" shape="144.66,227.22 141.46,228.63"/>
    <junction id="22" type="dead_end" x="26.72" y="296.94" incLanes="16_0" intLanes="" shape="28.43,296.57 25.01,297.31"/>
    <junction id="23" type="dead_end" x="23.30" y="297.71" incLanes="" intLanes="" shape="25.02,297.34 21.58,298.07"/>
    <junction id="29" type="priority" x="-182.99" y="-28.68" incLanes="20_0 2_0 4_0" intLanes=":29_0_0 :29_1_0 :29_2_0 :29_3_0 :29_4_0 :29_5_0" shape="-182.86,-21.80 -177.12,-25.81 -178.24,-28.36 -178.22,-29.52 -177.81,-30.61 -177.02,-31.61 -175.84,-32.54 -179.66,-38.41 -193.14,-29.69 -189.36,-23.80 -187.07,-24.58 -185.97,-24.43 -184.90,-23.92 -183.86,-23.04" rightOfWay="edgePriority">
        <request index="0" response="001000" foes="001000" cont="0"/>
        <request index="1" response="111000" foes="111000" cont="0"/>
        <request index="2" response="000000" foes="100000" cont="0"/>
        <request index="3" response="000000" foes="100011" cont="0"/>
        <request index="4" response="000000" foes="000010" cont="0"/>
        <request index="5" response="001100" foes="001110" cont="0"/>
    </junction>
    <junction id="3" type="dead_end" x="254.40" y="-295.84" incLanes="" intLanes="" shape="253.49,-297.34 255.30,-294.35"/>
    <junction id="30" type="priority" x="-8.43" y="-28.32" incLanes="13_0 8_0 10_0" intLanes=":30_0_0 :30_1_0 :30_2_0 :30_3_0 :30_4_0 :30_5_0" shape="-9.01,-21.56 -3.03,-25.20 -3.75,-27.53 -3.53,-28.60 -2.92,-29.61 -1.93,-30.54 -0.54,-31.42 -3.82,-37.60 -18.57,-30.24 -15.65,-23.88 -13.09,-24.46 -11.94,-24.24 -10.88,-23.69 -9.90,-22.79" rightOfWay="edgePriority">
        <request index="0" response="001000" foes="001000" cont="0"/>
        <request index="1" response="111000" foes="111000" cont="0"/>
        <request index="2" response="000000" foes="100000" cont="0"/>
        <request index="3" response="000000" foes="100011" cont="0"/>
        <request index="4" response="000000" foes="000010" cont="0"/>
        <request index="5" response="001100" foes="001110" cont="0"/>
    </junction>
    <junction id="31" type="priority" x="-135.05" y="37.19" incLanes="17_0 11_0 19_0" intLanes=":31_0_0 :31_1_0 :31_2_0 :31_3_0 :31_4_0 :31_5_0" shape="-136.05,47.58 -130.14,43.82 -131.08,41.18 -130.95,39.94 -130.41,38.76 -129.46,37.63 -128.12,36.56 -132.03,30.76 -134.86,32.09 -136.10,32.20 -137.21,31.93 -138.20,31.29 -139.06,30.28 -144.87,34.19" rightOfWay="edgePriority">
        <request index="0" response="000000" foes="001000" cont="0"/>
        <request index="1" response="110000" foes="111000" cont="0"/>
        <request index="2" response="100000" foes="100000" cont="0"/>
        <request index="3" response="100011" foes="100011" cont="0"/>
        <request index="4" response="000000" foes="000010" cont="0"/>
        <request index="5" response="000000" foes="001110" cont="0"/>
    </junction>
    <junction id="5" type="dead_end" x="-297.83" y="37.04" incLanes="" intLanes="" shape="-296.92,38.53 -298.74,35.54"/>
    <junction id="8" type="dead_end" x="-296.00" y="40.02" incLanes="5_0" intLanes="" shape="-295.09,41.51 -296.91,38.52"/>

    <connection from="10" to="7" fromLane="0" toLane="0" contPos="-4.00" shape="-17.81,-28.67 -12.85,-31.02 -3.00,-36.05" via=":30_4_0" dir="s" state="M"/>
    <connection from="10" to="14" fromLane="0" toLane="0" contPos="-4.00" shape="-17.81,-28.67 -17.51,-28.78 -17.22,-28.90 -16.92,-29.01 -16.62,-29.12 -16.32,-29.24 -16.02,-29.35 -15.72,-29.44 -15.40,-29.51 -15.09,-29.57 -14.78,-29.64 -14.46,-29.70 -14.15,-29.76 -13.84,-29.81 -13.52,-29.84 -13.20,-29.85 -12.88,-29.86 -12.56,-29.86 -12.24,-29.86 -11.93,-29.81 -11.61,-29.76 -11.30,-29.71 -10.98,-29.65 -10.67,-29.57 -10.37,-29.47 -10.07,-29.36 -9.77,-29.25 -9.48,-29.13 -9.19,-28.99 -8.92,-28.83 -8.64,-28.67 -8.37,-28.50 -8.11,-28.32 -7.86,-28.12 -7.61,-27.91 -7.37,-27.71 -7.13,-27.50 -6.89,-27.29 -6.66,-27.07 -6.44,-26.84 -6.23,-26.59 -6.03,-26.35 -5.82,-26.10 -5.62,-25.86 -5.42,-25.61 -5.23,-25.35 -5.05,-25.09 -4.87,-24.82 -4.70,-24.56 -4.52,-24.29" via=":30_5_0" dir="l" state="m"/>
    <connection from="11" to="16" fromLane="0" toLane="0" contPos="-4.00" shape="-129.12,35.13 -129.31,35.26 -129.50,35.39 -129.69,35.53 -129.87,35.67 -130.06,35.81 -130.24,35.95 -130.41,36.10 -130.59,36.25 -130.76,36.41 -130.93,36.57 -131.09,36.73 -131.25,36.90 -131.41,37.07 -131.56,37.25 -131.70,37.43 -131.84,37.62 -131.97,37.81 -132.10,38.00 -132.22,38.20 -132.33,38.41 -132.43,38.61 -132.52,38.83 -132.61,39.04 -132.68,39.26 -132.75,39.48 -132.81,39.71 -132.85,39.93 -132.89,40.16 -132.92,40.39 -132.93,40.63 -132.94,40.86 -132.93,41.09 -132.91,41.32 -132.89,41.55 -132.85,41.78 -132.80,42.01 -132.75,42.23 -132.69,42.46 -132.62,42.68 -132.55,42.90 -132.46,43.11 -132.38,43.33 -132.28,43.54 -132.18,43.75 -132.08,43.96 -131.97,44.16 -131.86,44.36 -131.74,44.56 -131.62,44.76" via=":31_2_0" dir="r" state="m"/>
    <connection from="11" to="20" fromLane="0" toLane="0" contPos="-4.00" shape="-129.12,35.13 -129.41,35.30 -129.70,35.46 -129.99,35.63 -130.28,35.80 -130.58,35.96 -130.87,36.13 -131.16,36.29 -131.46,36.45 -131.76,36.59 -132.07,36.71 -132.39,36.83 -132.70,36.95 -133.02,37.07 -133.33,37.19 -133.65,37.28 -133.98,37.36 -134.30,37.44 -134.63,37.51 -134.96,37.57 -135.30,37.60 -135.63,37.62 -135.97,37.63 -136.30,37.65 -136.64,37.63 -136.97,37.59 -137.30,37.54 -137.63,37.50 -137.96,37.43 -138.28,37.33 -138.60,37.22 -138.92,37.11 -139.23,36.98 -139.53,36.83 -139.82,36.67 -140.11,36.50 -140.39,36.32 -140.67,36.13 -140.93,35.92 -141.19,35.71 -141.44,35.49 -141.69,35.26 -141.92,35.02 -142.14,34.77 -142.37,34.52 -142.59,34.26 -142.81,34.01 -143.03,33.75 -143.22,33.48 -143.42,33.21" via=":31_3_0" dir="l" state="m"/>
    <connection from="13" to="11" fromLane="0" toLane="0" contPos="-4.00" shape="-7.52,-22.48 -7.63,-22.66 -7.75,-22.84 -7.87,-23.02 -7.99,-23.20 -8.11,-23.37 -8.24,-23.54 -8.37,-23.71 -8.51,-23.88 -8.64,-24.04 -8.78,-24.21 -8.93,-24.37 -9.07,-24.53 -9.23,-24.68 -9.39,-24.82 -9.55,-24.96 -9.71,-25.10 -9.88,-25.23 -10.05,-25.36 -10.23,-25.49 -10.41,-25.60 -10.60,-25.71 -10.79,-25.81 -10.98,-25.91 -11.18,-25.99 -11.38,-26.06 -11.58,-26.13 -11.79,-26.19 -12.00,-26.23 -12.21,-26.27 -12.43,-26.30 -12.64,-26.32 -12.86,-26.33 -13.07,-26.33 -13.29,-26.32 -13.50,-26.31 -13.71,-26.29 -13.93,-26.25 -14.14,-26.21 -14.35,-26.17 -14.56,-26.12 -14.77,-26.07 -14.97,-26.01 -15.18,-25.95 -15.38,-25.87 -15.58,-25.80 -15.78,-25.72 -15.98,-25.64 -16.18,-25.56 -16.38,-25.47" via=":30_0_0" dir="r" state="m"/>