<?xml version='1.0' encoding='utf-8'?>
<routes xmlns:xsi="http://www.w3.org/2001/XMLSchema-instance" xsi:noNamespaceSchemaLocation="http://sumo.dlr.de/xsd/routes_file.xsd">
    <vType id="truck" length="7.50" minGap="4.50" maxSpeed="36.11" probability="0.80" speedFactor="normc(0.93,0.15,0.20,2.00)" vClass="truck" impatience="0.08" guiShape="truck" width="2.60" lcStrategic="1.26" lcCooperative="1.87" lcSpeedGain="16.07" lcKeepRight="0.81" lcImpatience="0.50" lcMaxSpeedLatStanding="0.00" lcSigma="0.16" accel="1.12" decel="3.14" sigma="0.66" />
    <vehicle id="0" depart="0.00" departLane="best" departPos="base" departSpeed="max">
        <route edges="1373 1372 1371 1378 1380" />
    </vehicle>
    <vType id="passenger" length="5.00" minGap="4.50" maxSpeed="50.00" probability="4.00" speedFactor="normc(1.06,0.17,0.20,2.00)" vClass="passenger" impatience="0.40" guiShape="passenger" width="2.00" lcStrategic="2.87" lcCooperative="1.49" lcSpeedGain="16.11" lcKeepRight="0.83" lcImpatience="0.34" lcMaxSpeedLatStanding="0.00" lcSigma="0.14" accel="2.15" decel="4.18" sigma="0.64" />
    <vehicle id="1" depart="0.07" departLane="best" departPos="base" departSpeed="max">
        <route edges="1373 1372 1371 1378 1380" />
    </vehicle>
    <vehicle id="2" depart="0.13" departLane="best" departPos="base" departSpeed="max">
        <route edges="1373 1372 1371 1378 1380" />
    </vehicle>
    <vehicle id="3" depart="0.20" departLane="best" departPos="base" departSpeed="max">
        <route edges="1365 1364 1363 1372 1371 1378 1380" />
    </vehicle>
    <vehicle id="4" depart="0.27" departLane="best" departPos="base" departSpeed="max">
        <route edges="1373 1372 1371 1378 1380" />
    </vehicle>
    <vehicle id="5" depart="0.33" departLane="best" departPos="base" departSpeed="max">
        <route edges="1373 1372 1371 1378 1380" />
    </vehicle>
    <vehicle id="6" depart="0.40" departLane="best" departPos="base" departSpeed="max">
        <route edges="1379 1378 1380" />
    </vehicle>
    <vehicle id="7" depart="0.46" departLane="best" departPos="base" departSpeed="max">
        <route edges="1379 1378 1380" />
    </vehicle>
    <vehicle id="8" depart="0.53" departLane="best" departPos="base" departSpeed="max">
        <route edges="1373 1372 1371 1378 1380" />
    </vehicle>
    <vehicle id="9" depart="0.60" departLane="best" departPos="base" departSpeed="max">
        <route edges="1373 1372 1371 1378 1380" />
    </vehicle>
    <vehicle id="10" depart="0.66" departLane="best" departPos="base" departSpeed="max">
        <route edges="1365 1364 1363 1372 1371 1378 1380" />
    </vehicle>
    <vehicle id="11" depart="0.73" departLane="best" departPos="base" departSpeed="max">
        <route edges="1373 1372 1371 1378 1380" />
    </vehicle>
    <vehicle id="12" depart="0.80" departLane="best" departPos="base" departSpeed="max">
        <route edges="1379 1378 1380" />
    </vehicle>
    <vehicle id="13" depart="0.86" departLane="best" departPos="base" departSpeed="max">
        <route edges="1353 1364 1363 1372 1371 1378 1380" />
    </vehicle>
    <vehicle id="14" depart="0.93" departLane="best" departPos="base" departSpeed="max">
        <route edges="1365 1364 1363 1372 1371 1378 1380" />
    </vehicle>
    <vehicle id="15" depart="0.99" departLane="best" departPos="base" departSpeed="max">
        <route edges="1365 1364 1363 1372 1371 1378 1380" />
    </vehicle>
    <vehicle id="16" depart="1.06" departLane="best" departPos="base" departSpeed="max">
        <route edges="1379 1378 1380" />
    </vehicle>
    <vehicle id="17" depart="1.13" departLane="best" departPos="base" departSpeed="max">
        <route edges="1353 1364 1363 1372 1371 1378 1380" />
    </vehicle>
    <vehicle id="egoVehicle18" depart="1.19" departLane="best" departPos="base" departSpeed="max">
        <route edges="1379 1378 1380" />
    </vehicle>
    <vehicle id="19" depart="1.26" departLane="best" departPos="base" departSpeed="max">
        <route edges="1353 1364 1363 1372 1371 1378 1380" />
    </vehicle>
    <vehicle id="20" depart="1.33" departLane="best" departPos="base" departSpeed="max">
        <route edges="1365 1364 1363 1372 1371 1378 1380" />
    </vehicle>
    <vehicle id="21" depart="1.39" departLane="best" departPos="base" departSpeed="max">
        <route edges="1373 1372 1371 1378 1380" />
    </vehicle>
    <vehicle id="22" depart="1.46" departLane="best" departPos="base" departSpeed="max">
        <route edges="1373 1372 1371 1378 1380" />
    </vehicle>
    <vehicle id="23" depart="1.52" departLane="best" departPos="base" departSpeed="max">
        <route edges="1365 1364 1363 1372 1371 1378 1380" />
    </vehicle>
    <vType id="bus" length="12.40" minGap="2.50" maxSpeed="23.61" probability="0.30" speedFactor="normc(0.96,0.18,0.20,2.00)" vClass="bus" impatience="0.46" guiShape="bus" width="2.70" lcStrategic="2.00" lcCooperative="1.29" lcSpeedGain="16.39" lcKeepRight="0.90" lcImpatience="0.00" lcMaxSpeedLatStanding="0.00" lcSigma="0.17" accel="1.11" decel="4.23" sigma="0.51" />
    <vehicle id="24" depart="1.59" departLane="best" departPos="base" departSpeed="max">
        <route edges="1373 1372 1371 1378 1380" />
    </vehicle>
    <vehicle id="25" depart="1.66" departLane="best" departPos="base" departSpeed="max">
        <route edges="1353 1364 1363 1372 1371 1378 1380" />
    </vehicle>
    <vehicle id="26" depart="1.72" departLane="best" departPos="base" departSpeed="max">
        <route edges="1365 1364 1363 1372 1371 1378 1380" />
    </vehicle>
    <vehicle id="27" depart="1.79" departLane="best" departPos="base" departSpeed="max">
        <route edges="1379 1378 1380" />
    </vehicle>
    <vehicle id="28" depart="1.86" departLane="best" departPos="base" departSpeed="max">
        <route edges="1365 1364 1363 1372 1371 1378 1380" />
    </vehicle>
    <vehicle id="29" depart="1.92" departLane="best" departPos="base" departSpeed="max">
        <route edges="1373 1372 1371 1378 1380" />
    </vehicle>
    <vehicle id="30" depart="1.99" departLane="best" departPos="base" departSpeed="max">
        <route edges="1379 1378 1380" />
    </vehicle>
    <vehicle id="31" depart="2.05" departLane="best" departPos="base" departSpeed="max">
        <route edges="1373 1372 1371 1378 1380" />
    </vehicle>
    <vehicle id="32" depart="2.12" departLane="best" departPos="base" departSpeed="max">
        <route edges="1365 1364 1363 1372 1371 1378 1380" />
    </vehicle>
    <vehicle id="33" depart="2.19" departLane="best" departPos="base" departSpeed="max">
        <route edges="1365 1364 1363 1372 1371 1378 1380" />
    </vehicle>
    <vehicle id="34" depart="2.25" departLane="best" departPos="base" departSpeed="max">
        <route edges="1365 1364 1363 1372 1371 1378 1380" />
    </vehicle>
    <vehicle id="35" depart="2.32" departLane="best" departPos="base" departSpeed="max">
        <route edges="1379 1378 1380" />
    </vehicle>
    <vehicle id="36" depart="2.39" departLane="best" departPos="base" departSpeed="max">
        <route edges="1353 1364 1363 1372 1371 1378 1380" />
    </vehicle>
    <vehicle id="37" depart="2.45" departLane="best" departPos="base" departSpeed="max">
        <route edges="1365 1364 1363 1372 1371 1378 1380" />
    </vehicle>
    <vehicle id="38" depart="2.52" departLane="best" departPos="base" departSpeed="max">
        <route edges="1365 1364 1363 1372 1371 1378 1380" />
    </vehicle>
    <vehicle id="39" depart="2.58" departLane="best" departPos="base" departSpeed="max">
        <route edges="1379 1378 1380" />
    </vehicle>
    <vehicle id="40" depart="2.65" departLane="best" departPos="base" departSpeed="max">
        <route edges="1353 1364 1363 1372 1371 1378 1380" />
    </vehicle>
    <vehicle id="42" depart="2.78" departLane="best" departPos="base" departSpeed="max">
        <route edges="1365 1364 1363 1372 1371 1378 1380" />
    </vehicle>
    <vehicle id="43" depart="2.85" departLane="best" departPos="base" departSpeed="max">
        <route edges="1353 1364 1363 1372 1371 1378 1380" />
    </vehicle>
    <vehicle id="44" depart="2.92" departLane="best" departPos="base" departSpeed="max">
        <route edges="1353 1364 1363 1372 1371 1378 1380" />
    </vehicle>
    <vehicle id="45" depart="2.98" departLane="best" departPos="base" departSpeed="max">
        <route edges="1353 1364 1363 1372 1371 1378 1380" />
    </vehicle>
    <vehicle id="46" depart="3.05" departLane="best" departPos="base" departSpeed="max">
        <route edges="1379 1378 1380" />
    </vehicle>
    <vehicle id="47" depart="3.11" departLane="best" departPos="base" departSpeed="max">
        <route edges="1373 1372 1371 1378 1380" />
    </vehicle>
    <vehicle id="48" depart="3.18" departLane="best" departPos="base" departSpeed="max">
        <route edges="1353 1364 1363 1372 1371 1378 1380" />
    </vehicle>
    <vehicle id="49" depart="3.25" departLane="best" departPos="base" departSpeed="max">
        <route edges="1379 1378 1380" />
    </vehicle>
    <vehicle id="50" depart="3.31" departLane="best" departPos="base" departSpeed="max">
        <route edges="1379 1378 1380" />
    </vehicle>
    <vehicle id="51" depart="3.38" departLane="best" departPos="base" departSpeed="max">
        <route edges="1373 1372 1371 1378 1380" />
    </vehicle>
    <vehicle id="52" depart="3.45" departLane="best" departPos="base" departSpeed="max">
        <route edges="1365 1364 1363 1372 1371 1378 1380" />
    </vehicle>
    <vehicle id="53" depart="3.51" departLane="best" departPos="base" departSpeed="max">
        <route edges="1373 1372 1371 1378 1380" />
    </vehicle>
    <vehicle id="54" depart="3.58" departLane="best" departPos="base" departSpeed="max">
        <route edges="1373 1372 1371 1378 1380" />
    </vehicle>
    <vehicle id="55" depart="3.64" departLane="best" departPos="base" departSpeed="max">
        <route edges="1379 1378 1380" />
    </vehicle>
    <vehicle id="56" depart="3.71" departLane="best" departPos="base" departSpeed="max">
        <route edges="1379 1378 1380" />
    </vehicle>
    <vehicle id="57" depart="3.78" departLane="best" departPos="base" departSpeed="max">
        <route edges="1353 1364 1363 1372 1371 1378 1380" />
    </vehicle>
    <vehicle id="58" depart="3.84" departLane="best" departPos="base" departSpeed="max">
        <route edges="1373 1372 1371 1378 1380" />
    </vehicle>
    <vehicle id="59" depart="3.91" departLane="best" departPos="base" departSpeed="max">
        <route edges="1353 1364 1363 1372 1371 1378 1380" />
    </vehicle>
    <vehicle id="60" depart="3.98" departLane="best" departPos="base" departSpeed="max">
        <route edges="1373 1372 1371 1378 1380" />
    </vehicle>
    <vehicle id="61" depart="4.04" departLane="best" departPos="base" departSpeed="max">
        <route edges="1365 1364 1363 1372 1371 1378 1380" />
    </vehicle>
    <vehicle id="62" depart="4.11" departLane="best" departPos="base" departSpeed="max">
        <route edges="1365 1364 1363 1372 1371 1378 1380" />
    </vehicle>
    <vehicle id="63" depart="4.18" departLane="best" departPos="base" departSpeed="max">
        <route edges="1365 1364 1363 1372 1371 1378 1380" />
    </vehicle>
    <vehicle id="64" depart="4.24" departLane="best" departPos="base" departSpeed="max">
        <route edges="1365 1364 1363 1372 1371 1378 1380" />
    </vehicle>
    <vehicle id="65" depart="4.31" departLane="best" departPos="base" departSpeed="max">
        <route edges="1379 1378 1380" />
    </vehicle>
    <vehicle id="66" depart="4.37" departLane="best" departPos="base" departSpeed="max">
        <route edges="1353 1364 1363 1372 1371 1378 1380" />
    </vehicle>
    <vehicle id="67" depart="4.44" departLane="best" departPos="base" departSpeed="max">
        <route edges="1379 1378 1380" />
    </vehicle>
    <vehicle id="68" depart="4.51" departLane="best" departPos="base" departSpeed="max">
        <route edges="1373 1372 1371 1378 1380" />
    </vehicle>
    <vehicle id="70" depart="4.64" departLane="best" departPos="base" departSpeed="max">
        <route edges="1379 1378 1380" />
    </vehicle>
    <vehicle id="71" depart="4.71" departLane="best" departPos="base" departSpeed="max">
        <route edges="1373 1372 1371 1378 1380" />
    </vehicle>
    <vehicle id="72" depart="4.77" departLane="best" departPos="base" departSpeed="max">
        <route edges="1373 1372 1371 1378 1380" />
    </vehicle>
    <vehicle id="73" depart="4.84" departLane="best" departPos="base" departSpeed="max">
        <route edges="1365 1364 1363 1372 1371 1378 1380" />
    </vehicle>
    <vehicle id="74" depart="4.90" departLane="best" departPos="base" departSpeed="max">
        <route edges="1365 1364 1363 1372 1371 1378 1380" />
    </vehicle>
    <vehicle id="75" depart="4.97" departLane="best" departPos="base" departSpeed="max">
        <route edges="1379 1378 1380" />
    </vehicle>
    <vehicle id="76" depart="5.04" departLane="best" departPos="base" departSpeed="max">
        <route edges="1373 1372 1371 1378 1380" />
    </vehicle>
    <vehicle id="77" depart="5.10" departLane="best" departPos="base" departSpeed="max">
        <route edges="1379 1378 1380" />
    </vehicle>
    <vehicle id="78" depart="5.17" departLane="best" departPos="base" departSpeed="max">
        <route edges="1365 1364 1363 1372 1371 1378 1380" />
    </vehicle>
    <vehicle id="79" depart="5.24" departLane="best" departPos="base" departSpeed="max">
        <route edges="1373 1372 1371 1378 1380" />
    </vehicle>
    <vehicle id="80" depart="5.30" departLane="best" departPos="base" departSpeed="max">
        <route edges="1353 1364 1363 1372 1371 1378 1380" />
    </vehicle>
    <vehicle id="81" depart="5.37" departLane="best" departPos="base" departSpeed="max">
        <route edges="1365 1364 1363 1372 1371 1378 1380" />
    </vehicle>
    <vehicle id="82" depart="5.43" departLane="best" departPos="base" departSpeed="max">
        <route edges="1373 1372 1371 1378 1380" />
    </vehicle>
    <vehicle id="83" depart="5.50" departLane="best" departPos="base" departSpeed="max">
        <route edges="1373 1372 1371 1378 1380" />
    </vehicle>
    <vehicle id="84" depart="5.57" departLane="best" departPos="base" departSpeed="max">
        <route edges="1379 1378 1380" />
    </vehicle>
    <vehicle id="85" depart="5.63" departLane="best" departPos="base" departSpeed="max">
        <route edges="1379 1378 1380" />
    </vehicle>
    <vehicle id="86" depart="5.70" departLane="best" departPos="base" departSpeed="max">
        <route edges="1373 1372 1371 1378 1380" />
    </vehicle>
    <vehicle id="87" depart="5.77" departLane="best" departPos="base" departSpeed="max">
        <route edges="1379 1378 1380" />
    </vehicle>
    <vehicle id="88" depart="5.83" departLane="best" departPos="base" departSpeed="max">
        <route edges="1353 1364 1363 1372 1371 1378 1380" />
    </vehicle>
    <vehicle id="89" depart="5.90" departLane="best" departPos="base" departSpeed="max">
        <route edges="1365 1364 1363 1372 1371 1378 1380" />
    </vehicle>
    <vehicle id="90" depart="5.96" departLane="best" departPos="base" departSpeed="max">
        <route edges="1373 1372 1371 1378 1380" />
    </vehicle>
    <vehicle id="92" depart="6.10" departLane="best" departPos="base" departSpeed="max">
        <route edges="1379 1378 1380" />
    </vehicle>
    <vehicle id="93" depart="6.16" departLane="best" departPos="base" departSpeed="max">
        <route edges="1379 1378 1380" />
    </vehicle>
    <vehicle id="94" depart="6.23" departLane="best" departPos="base" departSpeed="max">
        <route edges="1379 1378 1380" />
    </vehicle>
    <vehicle id="95" depart="6.30" departLane="best" departPos="base" departSpeed="max">
        <route edges="1353 1364 1363 1372 1371 1378 1380" />
    </vehicle>
    <vehicle id="96" depart="6.36" departLane="best" departPos="base" departSpeed="max">
        <route edges="1365 1364 1363 1372 1371 1378 1380" />
    </vehicle>
    <vehicle id="97" depart="6.43" departLane="best" departPos="base" departSpeed="max">
        <route edges="1379 1378 1380" />
    </vehicle>
    <vehicle id="98" depart="6.49" departLane="best" departPos="base" departSpeed="max">
        <route edges="1353 1364 1363 1372 1371 1378 1380" />
    </vehicle>
    <vehicle id="99" depart="6.56" departLane="best" departPos="base" departSpeed="max">
        <route edges="1379 1378 1380" />
    </vehicle>
    <vehicle id="100" depart="6.63" departLane="best" departPos="base" departSpeed="max">
        <route edges="1379 1378 1380" />
    </vehicle>
    <vehicle id="101" depart="6.69" departLane="best" departPos="base" departSpeed="max">
        <route edges="1353 1364 1363 1372 1371 1378 1380" />
    </vehicle>
    <vehicle id="102" depart="6.76" departLane="best" departPos="base" departSpeed="max">
        <route edges="1373 1372 1371 1378 1380" />
    </vehicle>
    <vehicle id="103" depart="6.83" departLane="best" departPos="base" departSpeed="max">
        <route edges="1379 1378 1380" />
    </vehicle>
    <vType id="bicycle" length="2.00" minGap="1.00" maxSpeed="6.94" probability="0.20" speedFactor="normc(0.95,0.16,0.20,2.00)" vClass="bicycle" impatience="0.30" guiShape="bicycle" width="0.68" lcStrategic="4.54" lcCooperative="2.31" lcSpeedGain="11.88" lcKeepRight="0.87" lcImpatience="0.10" lcMaxSpeedLatStanding="0.00" lcSigma="0.14" accel="1.34" decel="2.90" sigma="0.70" />
    <vehicle id="104" depart="6.89" departLane="best" departPos="base" departSpeed="max">
        <route edges="1379 1378 1380" />
    </vehicle>
    <vehicle id="105" depart="6.96" departLane="best" departPos="base" departSpeed="max">
        <route edges="1373 1372 1371 1378 1380" />
    </vehicle>
    <vehicle id="106" depart="7.02" departLane="best" departPos="base" departSpeed="max">
        <route edges="1365 1364 1363 1372 1371 1378 1380" />
    </vehicle>
    <vehicle id="107" depart="7.09" departLane="best" departPos="base" departSpeed="max">
        <route edges="1379 1378 1380" />
    </vehicle>
    <vehicle id="108" depart="7.16" departLane="best" departPos="base" departSpeed="max">
        <route edges="1365 1364 1363 1372 1371 1378 1380" />
    </vehicle>
    <vehicle id="109" depart="7.22" departLane="best" departPos="base" departSpeed="max">
        <route edges="1365 1364 1363 1372 1371 1378 1380" />
    </vehicle>
    <vehicle id="110" depart="7.29" departLane="best" departPos="base" departSpeed="max">
        <route edges="1373 1372 1371 1378 1380" />
    </vehicle>
    <vehicle id="111" depart="7.36" departLane="best" departPos="base" departSpeed="max">
        <route edges="1365 1364 1363 1372 1371 1378 1380" />
    </vehicle>
    <vehicle id="112" depart="7.42" departLane="best" departPos="base" departSpeed="max">
        <route edges="1365 1364 1363 1372 1371 1378 1380" />
    </vehicle>
    <vehicle id="113" depart="7.49" departLane="best" departPos="base" departSpeed="max">
        <route edges="1379 1378 1380" />
    </vehicle>
    <vehicle id="114" depart="7.56" departLane="best" departPos="base" departSpeed="max">
        <route edges="1365 1364 1363 1372 1371 1378 1380" />
    </vehicle>
    <vehicle id="115" depart="7.62" departLane="best" departPos="base" departSpeed="max">
        <route edges="1379 1378 1380" />
    </vehicle>
    <vehicle id="116" depart="7.69" departLane="best" departPos="base" departSpeed="max">
        <route edges="1353 1364 1363 1372 1371 1378 1380" />
    </vehicle>
    <vehicle id="117" depart="7.75" departLane="best" departPos="base" departSpeed="max">
        <route edges="1373 1372 1371 1378 1380" />
    </vehicle>
    <vehicle id="118" depart="7.82" departLane="best" departPos="base" departSpeed="max">
        <route edges="1379 1378 1380" />
    </vehicle>
    <vehicle id="119" depart="7.89" departLane="best" departPos="base" departSpeed="max">
        <route edges="1373 1372 1371 1378 1380" />
    </vehicle>
    <vehicle id="120" depart="7.95" departLane="best" departPos="base" departSpeed="max">
        <route edges="1379 1378 1380" />
    </vehicle>
    <vehicle id="121" depart="8.02" departLane="best" departPos="base" departSpeed="max">
        <route edges="1373 1372 1371 1378 1380" />
    </vehicle>
    <vehicle id="122" depart="8.09" departLane="best" departPos="base" departSpeed="max">
        <route edges="1373 1372 1371 1378 1380" />
    </vehicle>
    <vehicle id="123" depart="8.15" departLane="best" departPos="base" departSpeed="max">
        <route edges="1373 1372 1371 1378 1380" />
    </vehicle>
    <vehicle id="124" depart="8.22" departLane="best" departPos="base" departSpeed="max">
        <route edges="1353 1364 1363 1372 1371 1378 1380" />
    </vehicle>
    <vehicle id="125" depart="8.28" departLane="best" departPos="base" departSpeed="max">
        <route edges="1365 1364 1363 1372 1371 1378 1380" />
    </vehicle>
    <vehicle id="126" depart="8.35" departLane="best" departPos="base" departSpeed="max">
        <route edges="1373 1372 1371 1378 1380" />
    </vehicle>
    <vehicle id="127" depart="8.42" departLane="best" departPos="base" departSpeed="max">
        <route edges="1373 1372 1371 1378 1380" />
    </vehicle>
    <vehicle id="128" depart="8.48" departLane="best" departPos="base" departSpeed="max">
        <route edges="1373 1372 1371 1378 1380" />
    </vehicle>
    <vehicle id="129" depart="8.55" departLane="best" departPos="base" departSpeed="max">
        <route edges="1353 1364 1363 1372 1371 1378 1380" />
    </vehicle>
    <vehicle id="130" depart="8.62" departLane="best" departPos="base" departSpeed="max">
        <route edges="1379 1378 1380" />
    </vehicle>
    <vehicle id="131" depart="8.68" departLane="best" departPos="base" departSpeed="max">
        <route edges="1373 1372 1371 1378 1380" />
    </vehicle>
    <vehicle id="132" depart="8.75" departLane="best" departPos="base" departSpeed="max">
        <route edges="1365 1364 1363 1372 1371 1378 1380" />
    </vehicle>
    <vehicle id="133" depart="8.81" departLane="best" departPos="base" departSpeed="max">
        <route edges="1379 1378 1380" />
    </vehicle>
    <vehicle id="134" depart="8.88" departLane="best" departPos="base" departSpeed="max">
        <route edges="1365 1364 1363 1372 1371 1378 1380" />
    </vehicle>
    <vehicle id="135" depart="8.95" departLane="best" departPos="base" departSpeed="max">
        <route edges="1365 1364 1363 1372 1371 1378 1380" />
    </vehicle>
    <vehicle id="136" depart="9.01" departLane="best" departPos="base" departSpeed="max">
        <route edges="1365 1364 1363 1372 1371 1378 1380" />
    </vehicle>
    <vehicle id="137" depart="9.08" departLane="best" departPos="base" departSpeed="max">
        <route edges="1365 1364 1363 1372 1371 1378 1380" />
    </vehicle>
    <vehicle id="138" depart="9.15" departLane="best" departPos="base" departSpeed="max">
        <route edges="1353 1364 1363 1372 1371 1378 1380" />
    </vehicle>
    <vehicle id="139" depart="9.21" departLane="best" departPos="base" departSpeed="max">
        <route edges="1353 1364 1363 1372 1371 1378 1380" />
    </vehicle>
    <vehicle id="140" depart="9.28" departLane="best" departPos="base" departSpeed="max">
        <route edges="1373 1372 1371 1378 1380" />
    </vehicle>
    <vehicle id="141" depart="9.34" departLane="best" departPos="base" departSpeed="max">
        <route edges="1379 1378 1380" />
    </vehicle>
    <vehicle id="142" depart="9.41" departLane="best" departPos="base" departSpeed="max">
        <route edges="1353 1364 1363 1372 1371 1378 1380" />
    </vehicle>
    <vehicle id="143" depart="9.48" departLane="best" departPos="base" departSpeed="max">
        <route edges="1365 1364 1363 1372 1371 1378 1380" />
    </vehicle>
    <vehicle id="145" depart="9.61" departLane="best" departPos="base" departSpeed="max">
        <route edges="1353 1364 1363 1372 1371 1378 1380" />
    </vehicle>
    <vehicle id="146" depart="9.68" departLane="best" departPos="base" departSpeed="max">
        <route edges="1379 1378 1380" />
    </vehicle>
    <vehicle id="147" depart="9.74" departLane="best" departPos="base" departSpeed="max">
        <route edges="1379 1378 1380" />
    </vehicle>
    <vehicle id="148" depart="9.81" departLane="best" departPos="base" departSpeed="max">
        <route edges="1373 1372 1371 1378 1380" />
    </vehicle>
    <vehicle id="149" depart="9.87" departLane="best" departPos="base" departSpeed="max">
        <route edges="1379 1378 1380" />
    </vehicle>
    <vehicle id="150" depart="9.94" departLane="best" departPos="base" departSpeed="max">
        <route edges="1353 1364 1363 1372 1371 1378 1380" />
    </vehicle>
    <vehicle id="151" depart="10.01" departLane="best" departPos="base" departSpeed="max">
        <route edges="1373 1372 1371 1378 1380" />
    </vehicle>
    <vehicle id="152" depart="10.07" departLane="best" departPos="base" departSpeed="max">
        <route edges="1365 1364 1363 1372 1371 1378 1380" />
    </vehicle>
    <vehicle id="153" depart="10.14" departLane="best" departPos="base" departSpeed="max">
        <route edges="1353 1364 1363 1372 1371 1378 1380" />
    </vehicle>
    <vehicle id="154" depart="10.21" departLane="best" departPos="base" departSpeed="max">
        <route edges="1353 1364 1363 1372 1371 1378 1380" />
    </vehicle>
    <vehicle id="155" depart="10.27" departLane="best" departPos="base" departSpeed="max">
        <route edges="1353 1364 1363 1372 1371 1378 1380" />
    </vehicle>
    <vehicle id="156" depart="10.34" departLane="best" departPos="base" departSpeed="max">
        <route edges="1379 1378 1380" />
    </vehicle>
    <vehicle id="157" depart="10.40" departLane="best" departPos="base" departSpeed="max">
        <route edges="1353 1364 1363 1372 1371 1378 1380" />
    </vehicle>
    <vehicle id="158" depart="10.47" departLane="best" departPos="base" departSpeed="max">
        <route edges="1353 1364 1363 1372 1371 1378 1380" />
    </vehicle>
    <vehicle id="159" depart="10.54" departLane="best" departPos="base" departSpeed="max">
        <route edges="1353 1364 1363 1372 1371 1378 1380" />
    </vehicle>
    <vehicle id="160" depart="10.60" departLane="best" departPos="base" departSpeed="max">
        <route edges="1365 1364 1363 1372 1371 1378 1380" />
    </vehicle>
    <vehicle id="161" depart="10.67" departLane="best" departPos="base" departSpeed="max">
        <route edges="1365 1364 1363 1372 1371 1378 1380" />
    </vehicle>
    <vehicle id="162" depart="10.74" departLane="best" departPos="base" departSpeed="max">
        <route edges="1379 1378 1380" />
    </vehicle>
    <vehicle id="163" depart="10.80" departLane="best" departPos="base" departSpeed="max">
        <route edges="1353 1364 1363 1372 1371 1378 1380" />
    </vehicle>
    <vehicle id="164" depart="10.87" departLane="best" departPos="base" departSpeed="max">
        <route edges="1353 1364 1363 1372 1371 1378 1380" />
    </vehicle>
    <vehicle id="165" depart="10.93" departLane="best" departPos="base" departSpeed="max">
        <route edges="1379 1378 1380" />
    </vehicle>
    <vehicle id="166" depart="11.00" departLane="best" departPos="base" departSpeed="max">
        <route edges="1365 1364 1363 1372 1371 1378 1380" />
    </vehicle>
    <vehicle id="167" depart="11.07" departLane="best" departPos="base" departSpeed="max">
        <route edges="1373 1372 1371 1378 1380" />
    </vehicle>
    <vehicle id="168" depart="11.13" departLane="best" departPos="base" departSpeed="max">
        <route edges="1353 1364 1363 1372 1371 1378 1380" />
    </vehicle>
    <vehicle id="169" depart="11.20" departLane="best" departPos="base" departSpeed="max">
        <route edges="1365 1364 1363 1372 1371 1378 1380" />
    </vehicle>
    <vehicle id="170" depart="11.27" departLane="best" departPos="base" departSpeed="max">
        <route edges="1353 1364 1363 1372 1371 1378 1380" />
    </vehicle>
    <vehicle id="171" depart="11.33" departLane="best" departPos="base" departSpeed="max">
        <route edges="1373 1372 1371 1378 1380" />
    </vehicle>
    <vehicle id="172" depart="11.40" departLane="best" departPos="base" departSpeed="max">
        <route edges="1353 1364 1363 1372 1371 1378 1380" />
    </vehicle>
    <vehicle id="173" depart="11.47" departLane="best" departPos="base" departSpeed="max">
        <route edges="1353 1364 1363 1372 1371 1378 1380" />
    </vehicle>
    <vehicle id="174" depart="11.53" departLane="best" departPos="base" departSpeed="max">
        <route edges="1379 1378 1380" />
    </vehicle>
    <vehicle id="175" depart="11.60" departLane="best" departPos="base" departSpeed="max">
        <route edges="1353 1364 1363 1372 1371 1378 1380" />
    </vehicle>
    <vehicle id="176" depart="11.66" departLane="best" departPos="base" departSpeed="max">
        <route edges="1365 1364 1363 1372 1371 1378 1380" />
    </vehicle>
    <vehicle id="177" depart="11.73" departLane="best" departPos="base" departSpeed="max">
        <route edges="1365 1364 1363 1372 1371 1378 1380" />
    </vehicle>
    <vehicle id="178" depart="11.80" departLane="best" departPos="base" departSpeed="max">
        <route edges="1353 1364 1363 1372 1371 1378 1380" />
    </vehicle>
    <vehicle id="179" depart="11.86" departLane="best" departPos="base" departSpeed="max">
        <route edges="1379 1378 1380" />
    </vehicle>
    <vehicle id="180" depart="11.93" departLane="best" departPos="base" departSpeed="max">
        <route edges="1365 1364 1363 1372 1371 1378 1380" />
    </vehicle>
    <vehicle id="181" depart="12.00" departLane="best" departPos="base" departSpeed="max">
        <route edges="1365 1364 1363 1372 1371 1378 1380" />
    </vehicle>
    <vehicle id="182" depart="12.06" departLane="best" departPos="base" departSpeed="max">
        <route edges="1373 1372 1371 1378 1380" />
    </vehicle>