<!-- generated on 2021-07-01 01:58:05 by Eclipse SUMO netconvert Version 1.9.2
<configuration xmlns:xsi="http://www.w3.org/2001/XMLSchema-instance" xsi:noNamespaceSchemaLocation="http://sumo.dlr.de/xsd/netconvertConfiguration.xsd">

    <input>
        <node-files value="/home/klischat/out/2021_competition_scenarios/20210701-015539/DEU_Frankfurt-34/DEU_Frankfurt-34.nod.xml"/>
        <edge-files value="/home/klischat/out/2021_competition_scenarios/20210701-015539/DEU_Frankfurt-34/DEU_Frankfurt-34.edg.xml"/>
        <connection-files value="/home/klischat/out/2021_competition_scenarios/20210701-015539/DEU_Frankfurt-34/DEU_Frankfurt-34.con.xml"/>
        <tllogic-files value="/home/klischat/out/2021_competition_scenarios/20210701-015539/DEU_Frankfurt-34/DEU_Frankfurt-34.tll.xml"/>
        <type-files value="/home/klischat/out/2021_competition_scenarios/20210701-015539/DEU_Frankfurt-34/DEU_Frankfurt-34.typ.xml"/>
    </input>

    <output>
        <output-file value="/home/klischat/out/2021_competition_scenarios/20210701-015539/DEU_Frankfurt-34/DEU_Frankfurt-34.net.xml"/>
    </output>

    <processing>
        <geometry.remove.keep-edges.explicit value="true"/>
        <geometry.remove.min-length value="0"/>
        <geometry.avoid-overlap value="true"/>
        <offset.disable-normalization value="true"/>
    </processing>

    <tls_building>
        <tls.guess-signals value="true"/>
        <tls.green.time value="50"/>
        <tls.yellow.time value="10"/>
        <tls.red.time value="50"/>
        <tls.allred.time value="50"/>
        <tls.left-green.time value="50"/>
        <tls.crossing-min.time value="50"/>
        <tls.crossing-clearance.time value="50"/>
        <tls.group-signals value="true"/>
    </tls_building>

    <junctions>
        <no-turnarounds value="true"/>
        <junctions.internal-link-detail value="20"/>
    </junctions>

    <report>
        <aggregate-warnings value="5"/>
    </report>

    <random_number>
        <seed value="933"/>
    </random_number>

</configuration>
--><net xmlns:xsi="http://www.w3.org/2001/XMLSchema-instance" version="1.9" junctionCornerDetail="5" junctionLinkDetail="20" limitTurnSpeed="5.50" xsi:noNamespaceSchemaLocation="http://sumo.dlr.de/xsd/net_file.xsd">

    <location netOffset="0.00,0.00" convBoundary="467916.51,5544426.01,470794.98,5545143.94" origBoundary="467916.51,5544412.36,470795.35,5545145.78" projParameter="!"/>

    <type id="highway.bridleway" priority="1" speed="2.78" allow="pedestrian" oneway="1"/>
    <type id="highway.bus_guideway" priority="1" speed="27.78" allow="bus" oneway="1"/>
    <type id="highway.cycleway" priority="1" speed="8.33" allow="bicycle"/>
    <type id="highway.footway" priority="1" speed="2.78" allow="pedestrian" oneway="1"/>
    <type id="highway.ford" priority="1" speed="2.78" allow="army"/>
    <type id="highway.living_street" priority="2" speed="2.78" disallow="tram rail_urban rail rail_electric ship"/>
    <type id="highway.living_street_speed_27.78" priority="2" speed="27.78" disallow="tram rail_urban rail rail_electric ship"/>
    <type id="highway.motorway" priority="14" speed="39.44" disallow="pedestrian moped bicycle tram rail_urban rail rail_electric ship" oneway="1"/>
    <type id="highway.motorway_link" priority="9" speed="22.22" disallow="pedestrian moped bicycle tram rail_urban rail rail_electric ship" oneway="1"/>
    <type id="highway.path" priority="1" speed="2.78" allow="pedestrian bicycle"/>
    <type id="highway.pedestrian" priority="1" speed="2.78" allow="pedestrian" oneway="1"/>
    <type id="highway.primary" priority="12" speed="27.78" disallow="pedestrian tram rail_urban rail rail_electric ship"/>
    <type id="highway.primary_link" priority="7" speed="22.22" disallow="pedestrian tram rail_urban rail rail_electric ship"/>
    <type id="highway.raceway" priority="15" speed="83.33" allow="vip"/>
    <type id="highway.residential" priority="3" speed="13.89" disallow="pedestrian tram rail_urban rail rail_electric ship"/>
    <type id="highway.residential_speed_19.44" priority="3" speed="19.44" disallow="pedestrian tram rail_urban rail rail_electric ship"/>
    <type id="highway.secondary" priority="11" speed="27.78" disallow="pedestrian tram rail_urban rail rail_electric ship"/>
    <type id="highway.secondary_link" priority="6" speed="22.22" disallow="pedestrian tram rail_urban rail rail_electric ship"/>
    <type id="highway.service" priority="1" speed="5.56" allow="pedestrian delivery bicycle"/>
    <type id="highway.stairs" priority="1" speed="1.39" allow="pedestrian" oneway="1"/>
    <type id="highway.step" priority="1" speed="1.39" allow="pedestrian" oneway="1"/>
    <type id="highway.steps" priority="1" speed="1.39" allow="pedestrian" oneway="1"/>
    <type id="highway.tertiary" priority="10" speed="22.22" disallow="pedestrian tram rail_urban rail rail_electric ship"/>
    <type id="highway.tertiary_link" priority="5" speed="22.22" disallow="pedestrian tram rail_urban rail rail_electric ship"/>
    <type id="highway.track" priority="1" speed="5.56" allow="pedestrian motorcycle moped bicycle"/>
    <type id="highway.trunk" priority="13" speed="27.78" disallow="pedestrian bicycle tram rail_urban rail rail_electric ship"/>
    <type id="highway.trunk_link" priority="8" speed="22.22" disallow="pedestrian bicycle tram rail_urban rail rail_electric ship"/>
    <type id="highway.unclassified" priority="4" speed="13.89" disallow="tram rail_urban rail rail_electric ship"/>
    <type id="highway.unsurfaced" priority="1" speed="8.33" disallow="tram rail_urban rail rail_electric ship"/>
    <type id="railway.highspeed" priority="21" speed="69.44" allow="rail" oneway="1"/>
    <type id="railway.light_rail" priority="19" speed="27.78" allow="rail_urban" oneway="1"/>
    <type id="railway.preserved" priority="16" speed="27.78" allow="rail" oneway="1"/>
    <type id="railway.rail" priority="20" speed="44.44" allow="rail" oneway="1"/>
    <type id="railway.subway" priority="18" speed="27.78" allow="rail_urban" oneway="1"/>
    <type id="railway.tram" priority="17" speed="13.89" allow="tram" oneway="1"/>

    <edge id=":1_0" function="internal">
        <lane id=":1_0_0" index="0" disallow="tram rail_urban rail rail_electric ship" speed="36.11" length="8.13" width="4.00" shape="469844.00,5544826.60 469836.19,5544824.35"/>
        <lane id=":1_0_1" index="1" disallow="tram rail_urban rail rail_electric ship" speed="36.11" length="8.12" width="3.88" shape="469845.06,5544822.88 469837.26,5544820.64"/>
    </edge>
    <edge id=":2_0" function="internal">
        <lane id=":2_0_0" index="0" disallow="pedestrian moped bicycle tram rail_urban rail rail_electric ship" speed="36.11" length="65.04" width="4.00" shape="468726.14,5544572.22 468725.07,5544571.91 468723.41,5544571.49 468721.22,5544570.96 468718.55,5544570.34 468715.47,5544569.64 468712.03,5544568.87 468708.31,5544568.05 468704.34,5544567.19 468700.21,5544566.30 468695.96,5544565.39 468691.67,5544564.47 468687.37,5544563.56 468683.15,5544562.67 468679.06,5544561.80 468675.15,5544560.98 468671.49,5544560.22 468668.14,5544559.52 468665.15,5544558.90 468662.60,5544558.37"/>
    </edge>
    <edge id=":2_1" function="internal">
        <lane id=":2_1_0" index="0" disallow="tram rail_urban rail rail_electric ship" speed="36.11" length="65.07" width="4.00" shape="468727.14,5544567.61 468663.37,5544554.65"/>
        <lane id=":2_1_1" index="1" disallow="tram rail_urban rail rail_electric ship" speed="36.11" length="65.06" width="3.87" shape="468727.91,5544563.85 468664.16,5544550.84"/>
    </edge>
    <edge id=":3_0" function="internal">
        <lane id=":3_0_0" index="0" disallow="pedestrian tram rail_urban rail rail_electric ship" speed="27.78" length="7.98" width="4.00" shape="468574.82,5544536.33 468574.26,5544536.13 468573.75,5544535.95 468573.29,5544535.79 468572.88,5544535.65 468572.50,5544535.52 468572.14,5544535.41 468571.81,5544535.31 468571.49,5544535.22 468571.19,5544535.14 468570.88,5544535.06 468570.57,5544534.99 468570.25,5544534.91 468569.91,5544534.84 468569.55,5544534.76 468569.16,5544534.67 468568.72,5544534.58 468568.25,5544534.47 468567.73,5544534.35 468567.14,5544534.22"/>
        <lane id=":3_0_1" index="1" disallow="pedestrian tram rail_urban rail rail_electric ship" speed="27.78" length="7.96" width="4.00" shape="468574.90,5544535.98 468567.14,5544534.22"/>
        <lane id=":3_0_2" index="2" disallow="pedestrian tram rail_urban rail rail_electric ship" speed="27.78" length="8.00" width="3.85" shape="468575.81,5544532.15 468568.00,5544530.43"/>
    </edge>
    <edge id=":4_0" function="internal">
        <lane id=":4_0_0" index="0" disallow="pedestrian tram rail_urban rail rail_electric ship" speed="23.61" length="3.03" width="3.95" shape="468535.37,5544527.00 468532.42,5544526.33"/>
        <lane id=":4_0_1" index="1" disallow="pedestrian tram rail_urban rail rail_electric ship" speed="23.61" length="3.02" width="3.86" shape="468536.23,5544523.27 468533.29,5544522.58"/>
    </edge>
    <edge id=":4_2" function="internal">
        <lane id=":4_2_0" index="0" disallow="pedestrian tram rail_urban rail rail_electric ship" speed="31.94" length="3.03" width="4.06" shape="468534.47,5544530.92 468531.53,5544530.17"/>
    </edge>
    <edge id=":5_0" function="internal">
        <lane id=":5_0_0" index="0" disallow="pedestrian moped bicycle tram rail_urban rail rail_electric ship" speed="36.11" length="3.76" width="5.79" shape="470194.25,5544945.20 470190.75,5544943.83"/>
    </edge>
    <edge id=":5_1" function="internal">
        <lane id=":5_1_0" index="0" disallow="tram rail_urban rail rail_electric ship" speed="36.11" length="3.84" width="3.93" shape="470195.78,5544941.19 470192.17,5544939.88"/>
        <lane id=":5_1_1" index="1" disallow="tram rail_urban rail rail_electric ship" speed="36.11" length="3.83" width="3.88" shape="470197.09,5544937.52 470193.48,5544936.23"/>
    </edge>
    <edge id=":7_0" function="internal">
        <lane id=":7_0_0" index="0" disallow="tram rail_urban rail rail_electric ship" speed="27.78" length="7.92" width="5.59" shape="468198.22,5544431.04 468190.79,5544428.30"/>
    </edge>

    <edge id="1353" from="6" to="5" priority="2" type="highway.living_street" spreadType="center" length="632.64">
        <lane id="1353_0" index="0" disallow="tram rail_urban rail rail_electric ship" speed="36.11" length="633.18" width="3.96" customShape="1" shape="470794.61,5545145.78 470792.06,5545145.27 470789.52,5545144.75 470788.65,5545144.57 470786.93,5545144.20 470785.19,5545143.84 470784.32,5545143.65 470755.87,5545137.01 470742.58,5545133.52 470710.83,5545124.31 470693.74,5545118.90 470683.76,5545115.61 470673.80,5545112.29 470654.39,5545105.62 470635.05,5545098.79 470608.65,5545089.35 470582.26,5545079.92 470555.40,5545070.25 470528.53,5545060.62 470516.75,5545056.39 470504.97,5545052.15 470492.72,5545047.73 470480.47,5545043.32 470469.63,5545039.43 470458.80,5545035.53 470446.54,5545031.12 470434.29,5545026.73 470409.78,5545017.94 470385.26,5545009.17 470368.30,5545003.08 470351.33,5544996.99 470334.36,5544990.90 470317.39,5544984.83 470296.64,5544977.39 470275.91,5544969.94 470262.71,5544965.20 470249.51,5544960.45 470245.74,5544959.10 470241.97,5544957.74 470222.97,5544950.94 470203.97,5544944.14 470203.18,5544943.85 470201.54,5544943.27 470199.82,5544942.66 470198.92,5544942.33 470196.43,5544941.42 470195.78,5544941.19"/>
        <lane id="1353_1" index="1" disallow="tram rail_urban rail rail_electric ship" speed="36.11" length="632.64" width="3.87" customShape="1" shape="470795.36,5545142.10 470792.82,5545141.58 470790.28,5545141.05 470789.42,5545140.87 470787.70,5545140.51 470785.98,5545140.14 470785.11,5545139.96 470756.81,5545133.35 470738.23,5545128.45 470706.06,5545118.94 470696.79,5545115.99 470695.84,5545115.68 470694.88,5545115.37 470684.91,5545112.07 470674.96,5545108.72 470655.10,5545101.83 470635.31,5545094.80 470612.22,5545086.51 470589.13,5545078.27 470565.56,5545069.82 470542.01,5545061.36 470523.16,5545054.59 470504.32,5545047.81 470488.77,5545042.22 470473.21,5545036.64 470460.49,5545032.07 470447.77,5545027.51 470430.80,5545021.44 470413.84,5545015.34 470389.80,5545006.73 470365.77,5544998.10 470346.93,5544991.32 470328.08,5544984.56 470318.17,5544981.04 470308.28,5544977.48 470281.42,5544967.83 470254.56,5544958.17 470248.91,5544956.14 470243.25,5544954.11 470224.25,5544947.28 470205.24,5544940.44 470204.43,5544940.15 470202.78,5544939.56 470201.09,5544938.96 470200.23,5544938.64 470197.73,5544937.75 470197.09,5544937.52"/>
    </edge>
    <edge id="1363" from="1" to="2" priority="2" type="highway.living_street" spreadType="center" length="1138.76">
        <lane id="1363_0" index="0" disallow="tram rail_urban rail rail_electric ship" speed="36.11" length="1138.76" width="4.00" customShape="1" shape="469836.19,5544824.35 469834.83,5544823.96 469834.01,5544823.72 469832.34,5544823.24 469830.65,5544822.76 469829.80,5544822.52 469812.90,5544817.70 469795.99,5544812.92 469759.97,5544802.85 469739.87,5544797.29 469707.41,5544788.41 469674.93,5544779.62 469664.75,5544776.89 469654.55,5544774.19 469653.09,5544773.81 469651.64,5544773.42 469638.58,5544769.99 469625.53,5544766.54 469612.47,5544763.08 469599.41,5544759.67 469579.07,5544754.42 469558.73,5544749.20 469523.83,5544740.35 469488.90,5544731.61 469469.48,5544726.81 469450.05,5544722.05 469425.26,5544716.08 469400.45,5544710.17 469360.05,5544700.65 469319.61,5544691.30 469266.94,5544679.38 469214.20,5544667.75 469175.58,5544659.42 469136.93,5544651.25 469109.51,5544645.56 469082.09,5544639.92 469058.08,5544635.02 469034.07,5544630.12 469011.54,5544625.53 468989.00,5544620.96 468977.72,5544618.68 468966.45,5544616.39 468955.68,5544614.18 468944.90,5544611.99 468915.01,5544605.88 468885.13,5544599.78 468843.49,5544591.31 468801.84,5544582.81 468777.35,5544577.82 468752.86,5544572.84 468748.94,5544572.04 468745.02,5544571.23 468734.54,5544569.10 468727.14,5544567.61"/>
        <lane id="1363_1" index="1" disallow="tram rail_urban rail rail_electric ship" speed="36.11" length="1139.07" width="3.88" customShape="1" shape="469837.26,5544820.64 469835.90,5544820.25 469835.07,5544820.01 469833.39,5544819.53 469831.70,5544819.05 469830.86,5544818.81 469794.87,5544808.61 469719.00,5544787.58 469713.76,5544786.15 469683.21,5544777.86 469652.64,5544769.67 469542.39,5544741.06 469480.14,5544725.50 469444.18,5544716.69 469408.19,5544708.03 469389.70,5544703.64 469371.20,5544699.27 469341.97,5544692.46 469312.73,5544685.72 469294.68,5544681.61 469276.63,5544677.55 469248.31,5544671.27 469219.98,5544665.03 469190.16,5544658.56 469160.32,5544652.18 469122.14,5544644.19 469083.93,5544636.33 469043.25,5544628.04 469002.58,5544619.75 468958.47,5544610.78 468914.36,5544601.77 468888.39,5544596.49 468862.42,5544591.19 468831.55,5544584.89 468800.67,5544578.62 468784.01,5544575.25 468767.35,5544571.85 468756.57,5544569.67 468745.79,5544567.48 468735.31,5544565.35 468727.91,5544563.85"/>
    </edge>
    <edge id="1364" from="5" to="1" priority="2" type="highway.living_street" spreadType="center" length="365.95">
        <lane id="1364_0" index="0" disallow="tram rail_urban rail rail_electric ship" speed="36.11" length="365.95" width="5.79" acceleration="1" customShape="1" shape="470190.75,5544943.83 470185.47,5544941.84 470178.41,5544939.19 470168.99,5544935.68 470159.55,5544932.22 470153.40,5544930.01 470147.24,5544927.82 470135.47,5544923.64 470123.69,5544919.49 470110.95,5544915.05 470098.19,5544910.68 470080.68,5544904.75 470063.15,5544898.89 470039.44,5544891.02 470015.72,5544883.19 470008.59,5544880.86 470001.47,5544878.55 469996.23,5544876.88 469990.99,5544875.20 469985.77,5544873.51 469980.53,5544871.84 469971.95,5544869.16 469963.37,5544866.47 469955.74,5544864.07 469948.10,5544861.70 469939.03,5544858.90 469929.96,5544856.12 469921.82,5544853.68 469913.68,5544851.26 469906.97,5544849.28 469900.26,5544847.30 469893.55,5544845.35 469886.82,5544843.42 469879.13,5544841.25 469871.44,5544839.07 469861.82,5544836.39 469852.18,5544833.75 469845.43,5544831.93 469842.69,5544831.19"/>
        <lane id="1364_1" index="1" disallow="tram rail_urban rail rail_electric ship" speed="36.11" length="366.21" width="3.93" customShape="1" shape="470192.17,5544939.88 470181.64,5544936.09 470169.33,5544931.68 470158.90,5544927.96 470148.48,5544924.25 470118.31,5544913.59 470088.05,5544903.22 470073.36,5544898.29 470058.66,5544893.38 470042.05,5544887.87 470025.44,5544882.39 470006.43,5544876.19 469987.39,5544870.08 469959.73,5544861.36 469932.04,5544852.76 469912.91,5544846.94 469893.76,5544841.18 469877.95,5544836.48 469862.12,5544831.84 469852.03,5544828.92 469844.00,5544826.60"/>
        <lane id="1364_2" index="2" disallow="tram rail_urban rail rail_electric ship" speed="36.11" length="366.46" width="3.88" customShape="1" shape="470193.48,5544936.23 470162.18,5544925.03 470149.75,5544920.60 470113.90,5544907.97 470077.90,5544895.73 470039.94,5544883.08 470001.90,5544870.65 469964.23,5544858.71 469926.48,5544847.02 469901.10,5544839.33 469875.69,5544831.78 469858.40,5544826.74 469845.06,5544822.88"/>
    </edge>
    <edge id="1365" from="10" to="5" priority="14" type="highway.motorway" spreadType="center" length="249.01">
        <lane id="1365_0" index="0" disallow="pedestrian moped bicycle tram rail_urban rail rail_electric ship" speed="36.11" length="249.01" width="4.50" customShape="1" shape="470417.51,5545051.57 470416.30,5545050.02 470414.16,5545047.83 470412.02,5545045.96 470409.80,5545044.23 470409.01,5545043.68 470408.21,5545043.15 470407.90,5545042.95 470407.59,5545042.75 470407.47,5545042.68 470404.96,5545041.16 470401.43,5545039.31 470398.27,5545037.90 470395.03,5545036.64 470393.64,5545036.14 470392.23,5545035.68 470387.90,5545034.39 470383.46,5545033.22 470382.02,5545032.84 470380.57,5545032.44 470378.65,5545031.90 470376.72,5545031.37 470373.83,5545030.59 470370.94,5545029.79 470366.14,5545028.42 470361.34,5545027.04 470356.07,5545025.51 470350.82,5545023.93 470328.98,5545016.35 470328.30,5545016.08 470322.77,5545013.85 470317.28,5545011.50 470300.47,5545003.49 470300.25,5545003.37 470292.78,5544999.38 470285.43,5544995.22 470278.12,5544990.91 470270.87,5544986.52 470261.86,5544981.06 470252.79,5544975.73 470245.83,5544971.75 470238.84,5544967.81 470238.40,5544967.56 470237.96,5544967.32 470235.76,5544966.10 470233.56,5544964.86 470231.80,5544963.87 470230.03,5544962.89 470227.81,5544961.69 470225.59,5544960.49 470221.14,5544958.07 470216.67,5544955.71 470211.72,5544953.18 470206.72,5544950.73 470204.43,5544949.65 470202.13,5544948.59 470201.35,5544948.23 470199.65,5544947.47 470199.50,5544947.40 470199.03,5544947.18 470198.60,5544946.99 470197.99,5544946.71 470197.44,5544946.49 470194.99,5544945.49 470194.25,5544945.20"/>
    </edge>
    <edge id="1371" from="3" to="4" priority="3" type="highway.residential_speed_19.44" spreadType="center" length="32.57">
        <lane id="1371_0" index="0" disallow="pedestrian tram rail_urban rail rail_electric ship" speed="19.44" length="32.58" width="4.00" customShape="1" shape="468567.14,5544534.22 468566.55,5544534.08 468562.01,5544533.05 468554.43,5544531.34 468546.85,5544529.62 468545.84,5544529.39 468544.83,5544529.15 468543.96,5544528.95 468542.22,5544528.55 468540.51,5544528.15 468539.65,5544527.96 468536.77,5544527.31 468535.37,5544527.00"/>
        <lane id="1371_1" index="1" disallow="pedestrian tram rail_urban rail rail_electric ship" speed="19.44" length="32.57" width="3.85" customShape="1" shape="468568.00,5544530.43 468558.80,5544528.38 468545.67,5544525.42 468544.80,5544525.23 468543.07,5544524.84 468541.35,5544524.44 468540.50,5544524.25 468537.62,5544523.59 468536.23,5544523.27"/>
    </edge>
    <edge id="1372" from="2" to="3" priority="2" type="highway.living_street" spreadType="center" length="90.31">
        <lane id="1372_0" index="0" disallow="tram rail_urban rail rail_electric ship" speed="36.11" length="90.73" width="4.00" acceleration="1" customShape="1" shape="468662.60,5544558.37 468662.29,5544558.31 468661.79,5544558.21 468661.29,5544558.10 468660.80,5544558.00 468660.30,5544557.90 468659.80,5544557.79 468659.30,5544557.69 468658.80,5544557.59 468658.30,5544557.49 468657.80,5544557.38 468657.30,5544557.28 468656.80,5544557.18 468656.30,5544557.07 468655.80,5544556.97 468655.30,5544556.87 468654.80,5544556.76 468654.30,5544556.66 468653.80,5544556.56 468653.30,5544556.46 468652.80,5544556.35 468652.30,5544556.25 468651.80,5544556.15 468651.30,5544556.04 468650.80,5544555.94 468650.31,5544555.84 468649.81,5544555.73 468649.31,5544555.63 468648.81,5544555.53 468648.31,5544555.42 468647.81,5544555.32 468647.31,5544555.22 468646.81,5544555.12 468646.31,5544555.01 468645.81,5544554.91 468645.32,5544554.81 468644.82,5544554.70 468644.32,5544554.60 468643.82,5544554.49 468643.32,5544554.39 468642.82,5544554.29 468642.32,5544554.18 468641.83,5544554.08 468641.33,5544553.97 468640.83,5544553.87 468640.33,5544553.76 468639.83,5544553.66 468639.33,5544553.55 468638.83,5544553.45 468638.34,5544553.34 468637.84,5544553.24 468637.34,5544553.14 468636.84,5544553.03 468636.34,5544552.93 468635.84,5544552.82 468635.35,5544552.72 468634.85,5544552.62 468634.35,5544552.51 468633.85,5544552.41 468633.35,5544552.30 468632.85,5544552.20 468632.35,5544552.10 468631.85,5544551.99 468631.36,5544551.89 468630.86,5544551.79 468630.36,5544551.68 468629.86,5544551.58 468629.36,5544551.48 468628.86,5544551.37 468628.36,5544551.27 468627.87,5544551.17 468627.37,5544551.06 468626.87,5544550.96 468626.37,5544550.85 468625.87,5544550.75 468625.37,5544550.65 468624.87,5544550.54 468624.37,5544550.44 468623.88,5544550.34 468623.38,5544550.23 468622.88,5544550.13 468622.38,5544550.03 468621.88,5544549.92 468621.38,5544549.82 468620.88,5544549.72 468620.38,5544549.61 468619.88,5544549.51 468619.37,5544549.40 468618.87,5544549.30 468618.37,5544549.20 468617.86,5544549.09 468617.36,5544548.99 468616.86,5544548.88 468616.36,5544548.78 468615.85,5544548.68 468615.35,5544548.57 468614.85,5544548.47 468614.34,5544548.37 468613.84,5544548.26 468613.34,5544548.16 468612.83,5544548.05 468612.33,5544547.95 468611.83,5544547.85 468611.32,5544547.74 468610.82,5544547.64 468610.32,5544547.54 468609.81,5544547.43 468609.31,5544547.33 468608.81,5544547.23 468608.31,5544547.12 468607.80,5544547.02 468607.30,5544546.91 468606.80,5544546.81 468606.29,5544546.71 468605.79,5544546.60 468605.29,5544546.50 468604.78,5544546.39 468604.28,5544546.29 468603.78,5544546.18 468603.27,5544546.08 468602.77,5544545.98 468602.27,5544545.87 468601.73,5544545.76 468601.18,5544545.64 468600.64,5544545.53 468600.10,5544545.41 468599.55,5544545.28 468599.01,5544545.16 468598.47,5544545.03 468597.93,5544544.89 468597.40,5544544.75 468596.89,5544544.61 468596.39,5544544.47 468595.90,5544544.32 468595.40,5544544.18 468594.90,5544544.03 468594.40,5544543.87 468593.91,5544543.72 468593.41,5544543.56 468592.91,5544543.39 468592.42,5544543.23 468591.92,5544543.06 468591.43,5544542.89 468590.94,5544542.72 468590.45,5544542.54 468589.95,5544542.37 468589.46,5544542.19 468588.97,5544542.01 468588.48,5544541.82 468587.99,5544541.64 468587.50,5544541.45 468587.01,5544541.26 468586.52,5544541.07 468586.03,5544540.88 468585.54,5544540.69 468585.05,5544540.49 468584.57,5544540.30 468584.08,5544540.10 468583.59,5544539.90 468583.10,5544539.70 468582.61,5544539.50 468582.13,5544539.30 468581.64,5544539.10 468581.15,5544538.89 468580.67,5544538.69 468580.18,5544538.49 468579.69,5544538.29 468579.21,5544538.09 468578.72,5544537.88 468578.23,5544537.68 468577.74,5544537.48 468577.26,5544537.28 468576.77,5544537.09 468576.24,5544536.87 468575.70,5544536.66 468575.17,5544536.46 468574.82,5544536.33"/>
        <lane id="1372_1" index="1" disallow="tram rail_urban rail rail_electric ship" speed="36.11" length="90.42" width="4.00" customShape="1" shape="468663.37,5544554.65 468639.97,5544549.81 468609.44,5544543.43 468590.26,5544539.33 468574.90,5544535.98"/>
        <lane id="1372_2" index="2" disallow="tram rail_urban rail rail_electric ship" speed="36.11" length="90.31" width="3.87" customShape="1" shape="468664.16,5544550.84 468641.76,5544546.22 468606.83,5544538.88 468575.81,5544532.15"/>
    </edge>
    <edge id="1373" from="9" to="2" priority="14" type="highway.motorway" spreadType="center" length="86.47">
        <lane id="1373_0" index="0" disallow="pedestrian moped bicycle tram rail_urban rail rail_electric ship" speed="36.11" length="86.47" width="5.12" customShape="1" shape="468790.64,5544590.93 468790.55,5544592.19 468790.45,5544594.47 468790.42,5544595.09 468790.36,5544596.03 468790.29,5544597.00 468790.21,5544597.88 468790.10,5544598.78 468789.75,5544600.40 468789.12,5544602.00 468786.65,5544605.04 468786.51,5544605.14 468785.84,5544605.55 468785.13,5544605.88 468781.56,5544606.32 468781.15,5544606.28 468779.80,5544606.07 468778.57,5544605.77 468776.28,5544605.06 468773.98,5544604.25 468770.49,5544602.78 468765.24,5544599.99 468762.39,5544598.10 468759.72,5544596.03 468752.77,5544589.81 468747.84,5544585.30 468746.33,5544583.94 468744.81,5544582.61 468743.21,5544581.31 468741.57,5544580.08 468739.99,5544578.98 468738.38,5544577.94 468736.70,5544576.92 468734.99,5544575.97 468733.21,5544575.06 468731.41,5544574.22 468729.57,5544573.44 468727.69,5544572.74 468726.14,5544572.22"/>
    </edge>
    <edge id="1378" from="4" to="7" priority="2" type="highway.living_street_speed_27.78" spreadType="center" length="346.97">
        <lane id="1378_0" index="0" disallow="tram rail_urban rail rail_electric ship" speed="27.78" length="348.01" width="4.06" acceleration="1" customShape="1" shape="468531.53,5544530.17 468527.15,5544529.14 468521.30,5544527.78 468507.65,5544524.56 468494.02,5544521.28 468482.83,5544518.55 468471.66,5544515.75 468462.43,5544513.43 468453.21,5544511.09 468432.37,5544505.68 468411.59,5544500.07 468385.06,5544492.68 468358.62,5544484.99 468346.64,5544481.36 468334.68,5544477.66 468322.26,5544473.75 468309.86,5544469.81 468298.90,5544466.29 468287.95,5544462.71 468268.96,5544456.34 468250.03,5544449.83 468239.16,5544446.03 468228.32,5544442.14 468214.21,5544436.99 468200.13,5544431.76 468198.22,5544431.04"/>
        <lane id="1378_1" index="1" disallow="tram rail_urban rail rail_electric ship" speed="27.78" length="347.49" width="3.95" customShape="1" shape="468532.42,5544526.33 468526.08,5544524.90 468518.29,5544523.09 468505.15,5544519.97 468492.03,5544516.80 468478.44,5544513.45 468464.86,5544510.04 468438.71,5544503.34 468412.63,5544496.35 468397.69,5544492.21 468382.78,5544488.00 468362.14,5544481.98 468341.57,5544475.76 468325.34,5544470.70 468309.14,5544465.54 468299.15,5544462.31 468289.18,5544459.04 468271.17,5544452.99 468253.21,5544446.80 468243.77,5544443.50 468234.35,5544440.16 468221.18,5544435.41 468208.04,5544430.58 468201.96,5544428.30 468199.59,5544427.41"/>
        <lane id="1378_2" index="2" disallow="tram rail_urban rail rail_electric ship" speed="27.78" length="346.97" width="3.86" customShape="1" shape="468533.29,5544522.58 468475.73,5544508.80 468464.66,5544506.01 468442.83,5544500.41 468421.06,5544494.63 468404.64,5544490.13 468388.26,5544485.52 468335.32,5544469.77 468324.97,5544466.53 468304.46,5544460.00 468284.01,5544453.27 468232.97,5544435.56 468225.40,5544432.84 468211.30,5544427.68 468200.96,5544423.80"/>
    </edge>
    <edge id="1379" from="11" to="4" priority="3" type="highway.residential" spreadType="center" length="627.26">